<?xml version="1.0" encoding="UTF-8"?>

<!-- generated on 2021-06-03 14:30:34 by Eclipse SUMO polyconvert Version 1.9.1
<configuration xmlns:xsi="http://www.w3.org/2001/XMLSchema-instance" xsi:noNamespaceSchemaLocation="http://sumo.dlr.de/xsd/polyconvertConfiguration.xsd">

    <input>
        <net-file value="osm.net.xml"/>
        <osm-files value="osm_bbox.osm.xml"/>
        <osm.keep-full-type value="true"/>
        <type-file value="C:\Program%20Files%20(x86)\Eclipse\Sumo\data\typemap\osmPolyconvert.typ.xml"/>
    </input>

    <output>
        <output-file value="osm.poly.xml"/>
    </output>

    <processing>
        <poi-layer-offset value="5"/>
    </processing>

    <report>
        <verbose value="true"/>
    </report>

</configuration>
-->

<additional xmlns:xsi="http://www.w3.org/2001/XMLSchema-instance" xsi:noNamespaceSchemaLocation="http://sumo.dlr.de/xsd/additional_file.xsd">
    <location netOffset="-283088.75,-3941051.40" convBoundary="-0.00,-10.10,5519.91,3091.96" origBoundary="-77.394938,35.589882,-77.333732,35.617561" projParameter="+proj=utm +zone=18 +ellps=WGS84 +datum=WGS84 +units=m +no_defs"/>

    <poly id="170965116" type="leisure.stadium" color="207,245,201" fill="1" layer="-2.00" shape="2590.383720,816.054909 2609.301781,817.442612 2620.820011,817.620756 2623.221141,840.940050 2649.463579,833.238260 2672.963496,822.327919 2698.798150,805.200917 2721.889324,788.595040 2741.237877,769.792529 2746.601878,763.247716 2729.235166,749.456818 2736.733487,735.523480 2741.426124,720.281150 2737.944856,690.105687 2735.418848,675.913744 2709.995919,638.517662 2685.704139,624.427059 2657.027667,619.155575 2633.207561,624.312612 2601.262005,636.547219 2592.360986,641.911750 2581.862634,649.845551 2572.727406,656.026051 2550.175340,675.827298 2535.925120,695.884025 2528.537273,714.399280 2568.786874,722.133743 2564.555470,733.924028 2566.673502,749.235775 2573.380228,760.074781 2591.176475,772.489737 2602.749987,774.964275 2590.383720,816.054909"/>
    <poly id="170965116#1" type="sport.american_football" color="79,230,125" fill="1" layer="-2.00" shape="2590.383720,816.054909 2609.301781,817.442612 2620.820011,817.620756 2623.221141,840.940050 2649.463579,833.238260 2672.963496,822.327919 2698.798150,805.200917 2721.889324,788.595040 2741.237877,769.792529 2746.601878,763.247716 2729.235166,749.456818 2736.733487,735.523480 2741.426124,720.281150 2737.944856,690.105687 2735.418848,675.913744 2709.995919,638.517662 2685.704139,624.427059 2657.027667,619.155575 2633.207561,624.312612 2601.262005,636.547219 2592.360986,641.911750 2581.862634,649.845551 2572.727406,656.026051 2550.175340,675.827298 2535.925120,695.884025 2528.537273,714.399280 2568.786874,722.133743 2564.555470,733.924028 2566.673502,749.235775 2573.380228,760.074781 2591.176475,772.489737 2602.749987,774.964275 2590.383720,816.054909"/>
    <poly id="170965119" type="leisure.sports_centre" color="207,245,201" fill="1" layer="-2.00" shape="2450.682978,868.378668 2462.335154,886.557935 2459.942098,888.080749 2471.990000,906.883216 2545.578577,860.134736 2522.019959,823.371428 2510.330905,830.790067 2506.233300,824.395022 2518.234687,816.769059 2494.534603,779.787209 2482.408197,787.493910 2478.734312,781.754693 2471.242457,786.519345 2465.637669,777.774034 2431.205009,799.648643 2436.216559,807.475792 2428.170984,812.586816 2431.863815,818.358859 2420.683813,825.454564 2444.996828,863.409404 2449.577487,860.490815 2453.486695,866.590664 2450.682978,868.378668"/>
    <poly id="170965119#1" type="sport.basketball" color="79,230,125" fill="1" layer="-2.00" shape="2450.682978,868.378668 2462.335154,886.557935 2459.942098,888.080749 2471.990000,906.883216 2545.578577,860.134736 2522.019959,823.371428 2510.330905,830.790067 2506.233300,824.395022 2518.234687,816.769059 2494.534603,779.787209 2482.408197,787.493910 2478.734312,781.754693 2471.242457,786.519345 2465.637669,777.774034 2431.205009,799.648643 2436.216559,807.475792 2428.170984,812.586816 2431.863815,818.358859 2420.683813,825.454564 2444.996828,863.409404 2449.577487,860.490815 2453.486695,866.590664 2450.682978,868.378668"/>
    <poly id="170965120" type="leisure.pitch" color="207,245,201" fill="1" layer="-2.00" shape="2601.614482,765.822811 2576.219600,724.707839 2670.582942,665.594850 2697.310517,704.835403 2601.614482,765.822811"/>
    <poly id="170965120#1" type="sport.american_football" color="79,230,125" fill="1" layer="-2.00" shape="2601.614482,765.822811 2576.219600,724.707839 2670.582942,665.594850 2697.310517,704.835403 2601.614482,765.822811"/>
    <poly id="170965121" type="leisure.pitch" color="207,245,201" fill="1" layer="-2.00" shape="2361.011575,794.988881 2439.742342,746.028932 2399.720601,682.222348 2370.948754,700.109145 2390.860753,731.853786 2340.901559,762.927166 2361.011575,794.988881"/>
    <poly id="170965121#1" type="sport.tennis" color="79,230,125" fill="1" layer="-2.00" shape="2361.011575,794.988881 2439.742342,746.028932 2399.720601,682.222348 2370.948754,700.109145 2390.860753,731.853786 2340.901559,762.927166 2361.011575,794.988881"/>
    <poly id="171002450" type="building.school" color="255,230,230" fill="1" layer="-1.00" shape="2812.445600,636.666517 2784.133376,653.719458 2792.708858,666.500650 2825.996094,645.576367 2833.814661,657.798566 2799.877466,680.347963 2808.456101,693.262293 2840.326551,672.238892 2849.306743,686.020526 2840.280654,691.842915 2849.487618,706.007608 2890.770648,679.396934 2881.563729,665.232201 2872.439261,671.112417 2864.579194,657.536964 2894.806909,637.563345 2886.932723,624.532120 2853.698307,646.154202 2845.401129,632.877866 2878.422107,611.804790 2870.162780,598.971529 2841.953197,617.287225 2838.568913,611.896123 2841.007676,610.383423 2823.908179,583.187996 2821.469677,584.711795 2791.211535,603.420969 2812.445600,636.666517"/>
    <poly id="171002451" type="building.school" color="255,230,230" fill="1" layer="-1.00" shape="2837.932898,655.623913 2848.663832,648.683859 2840.945217,636.847754 2830.214006,643.776723 2837.932898,655.623913"/>
    <poly id="171002452" type="building.school" color="255,230,230" fill="1" layer="-1.00" shape="2863.508092,663.900890 2868.984342,673.348825 2854.003010,682.999483 2847.997478,673.786272 2863.508092,663.900890"/>
    <poly id="172216007" type="building.house" color="255,230,230" fill="1" layer="-1.00" shape="3136.782726,675.268686 3143.735061,670.672967 3146.650400,675.043104 3149.729608,673.015622 3147.999060,670.415292 3150.283549,668.895279 3144.302039,659.914418 3131.976938,668.057856 3136.782726,675.268686"/>
    <poly id="172216009" type="building.house" color="255,230,230" fill="1" layer="-1.00" shape="3167.196745,646.788841 3154.267446,655.068838 3162.449823,667.737673 3175.379375,659.468781 3167.196745,646.788841"/>
    <poly id="172216010" type="building.house" color="255,230,230" fill="1" layer="-1.00" shape="3178.364055,649.340467 3184.133444,644.562248 3186.915031,647.892191 3195.404688,640.862018 3186.761195,630.513044 3172.502142,642.321447 3178.364055,649.340467"/>
    <poly id="172216012" type="building.house" color="255,230,230" fill="1" layer="-1.00" shape="3200.552023,631.314563 3211.250007,622.610834 3205.273255,615.339244 3194.584328,624.042763 3200.552023,631.314563"/>
    <poly id="172216014" type="building.house" color="255,230,230" fill="1" layer="-1.00" shape="3217.230691,619.459295 3230.733710,609.012214 3225.084229,601.777166 3211.581204,612.224254 3217.230691,619.459295"/>
    <poly id="172216016" type="building.house" color="255,230,230" fill="1" layer="-1.00" shape="3235.634641,603.932951 3242.435473,598.686040 3247.804333,605.561522 3253.322984,601.288870 3241.472153,586.110470 3229.152661,595.630044 3235.634641,603.932951"/>
    <poly id="172216019" type="building.house" color="255,230,230" fill="1" layer="-1.00" shape="3254.796706,585.990844 3258.205663,583.344992 3264.968229,592.007497 3270.095124,588.032852 3263.341887,579.381219 3265.780743,577.491234 3260.075046,570.179810 3249.091005,578.679427 3254.796706,585.990844"/>
    <poly id="172216020" type="building.house" color="255,230,230" fill="1" layer="-1.00" shape="3265.944942,566.564758 3270.930063,572.938845 3273.796143,570.716717 3275.199181,572.514610 3284.323255,565.469326 3277.934835,557.286244 3265.944942,566.564758"/>
    <poly id="172216021" type="building.house" color="255,230,230" fill="1" layer="-1.00" shape="3294.200431,544.830531 3284.104580,553.319913 3290.271584,560.586994 3300.367697,552.108713 3294.200431,544.830531"/>
    <poly id="172216022" type="building.house" color="255,230,230" fill="1" layer="-1.00" shape="3320.054862,536.773812 3314.339043,529.795603 3301.070311,540.569929 3306.786135,547.548131 3320.054862,536.773812"/>
    <poly id="172216023" type="building.house" color="255,230,230" fill="1" layer="-1.00" shape="3333.423266,513.132071 3318.769929,525.149462 3325.837891,533.693691 3340.491222,521.676311 3333.423266,513.132071"/>
    <poly id="172216027" type="building.house" color="255,230,230" fill="1" layer="-1.00" shape="3123.658923,692.067218 3125.028738,691.723555 3129.859216,693.916517 3130.484742,692.402991 3134.997287,694.570282 3138.537190,687.181471 3128.321127,682.331547 3130.384782,678.030687 3127.780329,676.794441 3128.850936,674.559830 3123.806988,672.161085 3116.001471,688.432452 3123.658923,692.067218"/>
    <poly id="172465587" type="amenity.school" color="237,199,199" fill="1" layer="-1.00" shape="3020.428270,1054.566988 3017.323418,1040.411089 3007.570701,1042.387911 3002.834806,1019.202325 3004.178982,1018.925856 3000.116930,1001.152081 3069.609844,985.409229 3083.144972,1041.695298 3104.372749,1037.733810 3112.109900,1076.443157 3113.165463,1076.229129 3117.831760,1099.549625 3091.854776,1104.690662 3078.425393,1107.210738 3077.619108,1103.078622 3064.561740,1105.611993 3062.515901,1095.160327 3039.929451,1099.543041 3036.828406,1083.655420 3004.298180,1091.118529 3002.821416,1084.738077 2994.328170,1086.684684 2990.048939,1068.172414 2998.542203,1066.225804 2997.085418,1059.922574 3020.428270,1054.566988"/>
    <poly id="172465587#1" type="building.school" color="255,230,230" fill="1" layer="-1.00" shape="3020.428270,1054.566988 3017.323418,1040.411089 3007.570701,1042.387911 3002.834806,1019.202325 3004.178982,1018.925856 3000.116930,1001.152081 3069.609844,985.409229 3083.144972,1041.695298 3104.372749,1037.733810 3112.109900,1076.443157 3113.165463,1076.229129 3117.831760,1099.549625 3091.854776,1104.690662 3078.425393,1107.210738 3077.619108,1103.078622 3064.561740,1105.611993 3062.515901,1095.160327 3039.929451,1099.543041 3036.828406,1083.655420 3004.298180,1091.118529 3002.821416,1084.738077 2994.328170,1086.684684 2990.048939,1068.172414 2998.542203,1066.225804 2997.085418,1059.922574 3020.428270,1054.566988"/>
    <poly id="172465588" type="amenity.place_of_worship" color="237,199,199" fill="1" layer="-1.00" shape="3180.562548,803.391165 3174.475358,800.961916 3169.890207,789.716424 3169.394845,788.340785 3148.711797,796.895572 3146.300797,797.297507 3141.750172,795.808237 3139.281934,802.139031 3143.324869,804.006782 3144.603179,805.896447 3153.449783,826.985456 3165.005699,822.312627 3171.525655,825.020094 3168.773579,831.612990 3176.959243,851.607853 3183.880775,854.427798 3188.512286,844.925995 3191.535280,828.081166 3187.975517,826.323909 3198.389774,802.774944 3204.427569,788.399763 3194.396240,792.381066 3192.537778,790.494207 3189.889612,790.457811 3187.984626,792.301719 3187.948275,794.944428 3183.323437,796.786963 3180.562548,803.391165"/>
    <poly id="172465588#1" type="building.church" color="255,230,230" fill="1" layer="-1.00" shape="3180.562548,803.391165 3174.475358,800.961916 3169.890207,789.716424 3169.394845,788.340785 3148.711797,796.895572 3146.300797,797.297507 3141.750172,795.808237 3139.281934,802.139031 3143.324869,804.006782 3144.603179,805.896447 3153.449783,826.985456 3165.005699,822.312627 3171.525655,825.020094 3168.773579,831.612990 3176.959243,851.607853 3183.880775,854.427798 3188.512286,844.925995 3191.535280,828.081166 3187.975517,826.323909 3198.389774,802.774944 3204.427569,788.399763 3194.396240,792.381066 3192.537778,790.494207 3189.889612,790.457811 3187.984626,792.301719 3187.948275,794.944428 3183.323437,796.786963 3180.562548,803.391165"/>
    <poly id="172467172" type="amenity.school" color="237,199,199" fill="1" layer="-1.00" shape="3021.879324,1039.480325 3024.781108,1053.485696 3036.260671,1050.934639 3035.092245,1044.935289 3060.377309,1040.043806 3054.403351,1009.461899 3025.612501,1015.980460 3030.071216,1037.818485 3021.879324,1039.480325"/>
    <poly id="172467172#1" type="building.school" color="255,230,230" fill="1" layer="-1.00" shape="3021.879324,1039.480325 3024.781108,1053.485696 3036.260671,1050.934639 3035.092245,1044.935289 3060.377309,1040.043806 3054.403351,1009.461899 3025.612501,1015.980460 3030.071216,1037.818485 3021.879324,1039.480325"/>
    <poly id="201484604" type="building.yes" color="255,230,230" fill="1" layer="-1.00" shape="1942.532589,2384.587294 1943.979563,2390.457729 1965.472200,2385.221436 1964.025241,2379.350998 1942.532589,2384.587294"/>
    <poly id="201484604#1" type="shop.art" color="237,199,255" fill="1" layer="-1.00" shape="1942.532589,2384.587294 1943.979563,2390.457729 1965.472200,2385.221436 1964.025241,2379.350998 1942.532589,2384.587294"/>
    <poly id="201484605" type="building.yes" color="255,230,230" fill="1" layer="-1.00" shape="1985.123787,2462.216166 1965.577949,2466.983634 1967.980026,2476.749426 1987.525843,2471.981963 1985.123787,2462.216166"/>
    <poly id="201484605#1" type="shop.clothes" color="237,199,255" fill="1" layer="-1.00" shape="1985.123787,2462.216166 1965.577949,2466.983634 1967.980026,2476.749426 1987.525843,2471.981963 1985.123787,2462.216166"/>
    <poly id="201484609" type="building.yes" color="255,230,230" fill="1" layer="-1.00" shape="1979.503218,2442.282464 1959.218495,2447.234276 1960.807005,2453.711813 1981.100773,2448.759786 1979.503218,2442.282464"/>
    <poly id="201484612" type="building.yes" color="255,230,230" fill="1" layer="-1.00" shape="1945.226608,2395.555969 1966.718965,2390.308585 1965.472200,2385.221436 1943.979563,2390.457729 1945.226608,2395.555969"/>
    <poly id="201484614" type="building.yes" color="255,230,230" fill="1" layer="-1.00" shape="1977.905126,2435.782955 1947.716759,2443.149432 1949.314872,2449.648936 1959.218495,2447.234276 1979.503218,2442.282464 1977.905126,2435.782955"/>
    <poly id="201484616" type="building.yes" color="255,230,230" fill="1" layer="-1.00" shape="1970.387540,2405.227652 1934.602984,2413.961341 1937.085343,2424.047099 1941.636172,2422.938241 1972.869859,2415.313418 1970.387540,2405.227652"/>
    <poly id="201484618" type="building.yes" color="255,230,230" fill="1" layer="-1.00" shape="1983.211475,2457.344881 1947.706354,2466.005188 1948.852624,2470.684049 1965.577949,2466.983634 1985.123787,2462.216166 1983.211475,2457.344881"/>
    <poly id="201484621" type="building.yes" color="255,230,230" fill="1" layer="-1.00" shape="1955.544775,2433.980380 1940.333622,2437.699767 1942.021307,2444.530118 1947.716759,2443.149432 1977.905126,2435.782955 1976.226260,2428.941286 1955.544775,2433.980380"/>
    <poly id="201484623" type="building.yes" color="255,230,230" fill="1" layer="-1.00" shape="1981.100773,2448.759786 1960.807005,2453.711813 1944.856510,2457.593341 1946.976573,2466.189305 1947.706354,2466.005188 1983.211475,2457.344881 1981.100773,2448.759786"/>
    <poly id="201484625" type="building.yes" color="255,230,230" fill="1" layer="-1.00" shape="1966.718965,2390.308585 1945.226608,2395.555969 1931.375846,2398.931727 1929.312248,2399.436645 1932.980884,2414.355700 1934.602984,2413.961341 1970.387540,2405.227652 1966.718965,2390.308585"/>
    <poly id="201484627" type="amenity.restaurant" color="237,199,199" fill="1" layer="-1.00" shape="1926.913334,2380.790547 1931.375846,2398.931727 1945.226608,2395.555969 1943.979563,2390.457729 1942.532589,2384.587294 1964.025241,2379.350998 1962.256524,2372.167390 1926.913334,2380.790547"/>
    <poly id="201484627#1" type="building.yes" color="255,230,230" fill="1" layer="-1.00" shape="1926.913334,2380.790547 1931.375846,2398.931727 1945.226608,2395.555969 1943.979563,2390.457729 1942.532589,2384.587294 1964.025241,2379.350998 1962.256524,2372.167390 1926.913334,2380.790547"/>
    <poly id="201484627#2" type="shop.deli" color="237,199,255" fill="1" layer="-1.00" shape="1926.913334,2380.790547 1931.375846,2398.931727 1945.226608,2395.555969 1943.979563,2390.457729 1942.532589,2384.587294 1964.025241,2379.350998 1962.256524,2372.167390 1926.913334,2380.790547"/>
    <poly id="201484629" type="building.yes" color="255,230,230" fill="1" layer="-1.00" shape="1972.869859,2415.313418 1941.636172,2422.938241 1942.942658,2428.245951 1950.043601,2426.509439 1950.284583,2427.480449 1953.735805,2426.631240 1974.417307,2421.592143 1972.869859,2415.313418"/>
    <poly id="201484629#1" type="shop.gift" color="237,199,255" fill="1" layer="-1.00" shape="1972.869859,2415.313418 1941.636172,2422.938241 1942.942658,2428.245951 1950.043601,2426.509439 1950.284583,2427.480449 1953.735805,2426.631240 1974.417307,2421.592143 1972.869859,2415.313418"/>
    <poly id="201484631" type="building.yes" color="255,230,230" fill="1" layer="-1.00" shape="1974.417307,2421.592143 1953.735805,2426.631240 1955.544775,2433.980380 1976.226260,2428.941286 1974.417307,2421.592143"/>
    <poly id="201484631#1" type="shop.stationery" color="237,199,255" fill="1" layer="-1.00" shape="1974.417307,2421.592143 1953.735805,2426.631240 1955.544775,2433.980380 1976.226260,2428.941286 1974.417307,2421.592143"/>
    <poly id="201493613" type="building.yes" color="255,230,230" fill="1" layer="-1.00" shape="1982.296763,2388.256546 2002.401517,2383.353541 2002.978368,2383.217520 2001.461059,2377.060168 1980.788500,2382.098978 1982.296763,2388.256546"/>
    <poly id="201493614" type="amenity.restaurant" color="237,199,199" fill="1" layer="-1.00" shape="1989.804455,2418.778794 2021.416801,2411.067306 2019.687584,2404.015941 1988.075213,2411.727433 1989.804455,2418.778794"/>
    <poly id="201493614#1" type="building.yes" color="255,230,230" fill="1" layer="-1.00" shape="1989.804455,2418.778794 2021.416801,2411.067306 2019.687584,2404.015941 1988.075213,2411.727433 1989.804455,2418.778794"/>
    <poly id="201493615" type="building.yes" color="255,230,230" fill="1" layer="-1.00" shape="1980.788500,2382.098978 2001.461059,2377.060168 2009.742396,2375.028820 2008.324784,2369.246471 1979.361810,2376.316851 1980.788500,2382.098978"/>
    <poly id="201493616" type="building.yes" color="255,230,230" fill="1" layer="-1.00" shape="2001.673953,2467.033970 2023.472566,2461.712721 2021.251546,2452.686269 1999.452912,2458.007522 2001.673953,2467.033970"/>
    <poly id="201493617" type="building.yes" color="255,230,230" fill="1" layer="-1.00" shape="1999.452912,2458.007522 2021.251546,2452.686269 2020.077251,2447.219957 1998.116073,2452.567334 1999.452912,2458.007522"/>
    <poly id="201493618" type="building.yes" color="255,230,230" fill="1" layer="-1.00" shape="1998.116073,2452.567334 2020.077251,2447.219957 2018.930749,2442.529995 1996.969828,2447.888468 1998.116073,2452.567334"/>
    <poly id="201493619" type="building.yes" color="255,230,230" fill="1" layer="-1.00" shape="1996.045637,2444.147769 1996.969828,2447.888468 2018.930749,2442.529995 2018.006568,2438.789294 1996.045637,2444.147769"/>
    <poly id="201493620" type="building.yes" color="255,230,230" fill="1" layer="-1.00" shape="1991.814121,2426.933417 2024.381635,2418.987986 2022.381058,2410.833138 2021.416801,2411.067306 1989.804455,2418.778794 1991.814121,2426.933417"/>
    <poly id="201493621" type="amenity.place_of_worship" color="237,199,199" fill="1" layer="-1.00" shape="1992.698598,2430.530771 2026.158416,2422.375110 2025.264625,2418.766879 2024.381635,2418.987986 1991.814121,2426.933417 1992.698598,2430.530771"/>
    <poly id="201493621#1" type="building.yes" color="255,230,230" fill="1" layer="-1.00" shape="1992.698598,2430.530771 2026.158416,2422.375110 2025.264625,2418.766879 2024.381635,2418.987986 1991.814121,2426.933417 1992.698598,2430.530771"/>
    <poly id="201493622" type="building.yes" color="255,230,230" fill="1" layer="-1.00" shape="1983.371576,2392.604126 2003.467260,2387.701341 2002.401517,2383.353541 1982.296763,2388.256546 1983.371576,2392.604126"/>
    <poly id="201493622#1" type="shop.hairdresser" color="237,199,255" fill="1" layer="-1.00" shape="1983.371576,2392.604126 2003.467260,2387.701341 2002.401517,2383.353541 1982.296763,2388.256546 1983.371576,2392.604126"/>
    <poly id="201493623" type="amenity.restaurant" color="237,199,199" fill="1" layer="-1.00" shape="1979.361810,2376.316851 2008.324784,2369.246471 2006.386035,2361.400942 1977.432095,2368.471109 1979.361810,2376.316851"/>
    <poly id="201493623#1" type="building.yes" color="255,230,230" fill="1" layer="-1.00" shape="1979.361810,2376.316851 2008.324784,2369.246471 2006.386035,2361.400942 1977.432095,2368.471109 1979.361810,2376.316851"/>
    <poly id="201493624" type="amenity.cafe" color="237,199,199" fill="1" layer="-1.00" shape="1996.045637,2444.147769 2018.006568,2438.789294 2031.730995,2435.438915 2028.375217,2421.833218 2026.158416,2422.375110 1992.698598,2430.530771 1996.045637,2444.147769"/>
    <poly id="201493624#1" type="building.yes" color="255,230,230" fill="1" layer="-1.00" shape="1996.045637,2444.147769 2018.006568,2438.789294 2031.730995,2435.438915 2028.375217,2421.833218 2026.158416,2422.375110 1992.698598,2430.530771 1996.045637,2444.147769"/>
    <poly id="201507008" type="building.yes" color="255,230,230" fill="1" layer="-1.00" shape="2117.142803,2421.779050 2120.323866,2421.003024 2118.856754,2415.044252 2120.532949,2414.637523 2118.955752,2408.248494 2101.103787,2412.597395 2102.681264,2418.997515 2104.699835,2418.504824 2106.166956,2424.463594 2109.537191,2423.638600 2110.532240,2427.688407 2118.137849,2425.828857 2117.142803,2421.779050"/>
    <poly id="201507009" type="building.yes" color="255,230,230" fill="1" layer="-1.00" shape="1990.141044,2486.449141 1951.806446,2495.799330 1956.640739,2515.452286 1969.355757,2512.348167 1994.966196,2506.102333 1990.141044,2486.449141"/>
    <poly id="201507010" type="building.yes" color="255,230,230" fill="1" layer="-1.00" shape="1913.181500,2489.738384 1907.793680,2467.812144 1900.188139,2469.671877 1905.585037,2491.597894 1913.181500,2489.738384"/>
    <poly id="201507011" type="building.yes" color="255,230,230" fill="1" layer="-1.00" shape="2124.845220,2390.101827 2130.724312,2414.003264 2142.331116,2411.170335 2136.452054,2387.268892 2124.845220,2390.101827"/>
    <poly id="201507012" type="building.yes" color="255,230,230" fill="1" layer="-1.00" shape="1922.751755,2487.409427 1917.354899,2465.483402 1912.876032,2466.568336 1918.273167,2488.505454 1922.751755,2487.409427"/>
    <poly id="201507013" type="building.yes" color="255,230,230" fill="1" layer="-1.00" shape="2081.298388,2386.689679 2097.221572,2382.420558 2092.017226,2363.198282 2076.094275,2367.478505 2081.298388,2386.689679"/>
    <poly id="201507014" type="building.yes" color="255,230,230" fill="1" layer="-1.00" shape="1945.523589,2481.853585 1940.135848,2459.927330 1931.331577,2462.071273 1936.719340,2483.997524 1945.523589,2481.853585"/>
    <poly id="201507015" type="building.yes" color="255,230,230" fill="1" layer="-1.00" shape="2072.639743,2346.393588 2077.167635,2363.123507 2083.219909,2361.501201 2078.692028,2344.771279 2072.639743,2346.393588"/>
    <poly id="201507016" type="building.yes" color="255,230,230" fill="1" layer="-1.00" shape="1912.876032,2466.568336 1907.793680,2467.812144 1913.181500,2489.738384 1918.273167,2488.505454 1912.876032,2466.568336"/>
    <poly id="201507017" type="building.yes" color="255,230,230" fill="1" layer="-1.00" shape="1931.331577,2462.071273 1924.320723,2463.783428 1929.708502,2485.709676 1936.719340,2483.997524 1931.331577,2462.071273"/>
    <poly id="201507018" type="building.yes" color="255,230,230" fill="1" layer="-1.00" shape="2101.273218,2338.809756 2111.512492,2378.124225 2127.033919,2374.109054 2116.794712,2334.794569 2101.273218,2338.809756"/>
    <poly id="201507019" type="building.yes" color="255,230,230" fill="1" layer="-1.00" shape="2012.650680,2359.939967 2018.700425,2384.514352 2025.347378,2382.744454 2019.553453,2358.252697 2012.650680,2359.939967"/>
    <poly id="201507020" type="building.yes" color="255,230,230" fill="1" layer="-1.00" shape="2084.303083,2343.270618 2088.830954,2360.000542 2093.829177,2358.647870 2089.417481,2341.848540 2084.303083,2343.270618"/>
    <poly id="201507021" type="amenity.restaurant" color="237,199,199" fill="1" layer="-1.00" shape="2038.067368,2353.909871 2019.553453,2358.252697 2025.347378,2382.744454 2027.151128,2389.128006 2045.469650,2384.578999 2038.067368,2353.909871"/>
    <poly id="201507021#1" type="building.yes" color="255,230,230" fill="1" layer="-1.00" shape="2038.067368,2353.909871 2019.553453,2358.252697 2025.347378,2382.744454 2027.151128,2389.128006 2045.469650,2384.578999 2038.067368,2353.909871"/>
    <poly id="201507022" type="amenity.pub" color="237,199,199" fill="1" layer="-1.00" shape="2078.692028,2344.771279 2083.219909,2361.501201 2088.830954,2360.000542 2084.303083,2343.270618 2078.692028,2344.771279"/>
    <poly id="201507022#1" type="building.yes" color="255,230,230" fill="1" layer="-1.00" shape="2078.692028,2344.771279 2083.219909,2361.501201 2088.830954,2360.000542 2084.303083,2343.270618 2078.692028,2344.771279"/>
    <poly id="201507023" type="building.apartments" color="255,230,230" fill="1" layer="-1.00" shape="2123.928882,2353.604013 2128.099117,2370.542380 2138.669507,2367.956447 2136.639979,2359.724577 2138.865860,2359.182495 2139.578618,2362.051381 2152.140699,2358.984532 2149.296599,2347.420017 2123.928882,2353.604013"/>
    <poly id="201507025" type="amenity.nightclub" color="237,199,199" fill="1" layer="-1.00" shape="2042.883352,2456.981942 2037.858642,2436.567626 2024.818970,2439.746072 2029.834650,2460.160600 2042.883352,2456.981942"/>
    <poly id="201507025#1" type="building.yes" color="255,230,230" fill="1" layer="-1.00" shape="2042.883352,2456.981942 2037.858642,2436.567626 2024.818970,2439.746072 2029.834650,2460.160600 2042.883352,2456.981942"/>
    <poly id="201507026" type="amenity.bar" color="237,199,199" fill="1" layer="-1.00" shape="2038.067368,2353.909871 2045.469650,2384.578999 2065.657575,2379.740734 2062.454547,2366.453252 2049.287130,2369.601433 2048.894480,2367.979163 2045.088188,2352.230874 2038.067368,2353.909871"/>
    <poly id="201507026#1" type="building.yes" color="255,230,230" fill="1" layer="-1.00" shape="2038.067368,2353.909871 2045.469650,2384.578999 2065.657575,2379.740734 2062.454547,2366.453252 2049.287130,2369.601433 2048.894480,2367.979163 2045.088188,2352.230874 2038.067368,2353.909871"/>
    <poly id="201507027" type="amenity.nightclub" color="237,199,199" fill="1" layer="-1.00" shape="2089.417481,2341.848540 2093.829177,2358.647870 2096.945776,2357.828990 2103.303264,2382.018585 2111.986931,2379.755626 2111.512492,2378.124225 2101.273218,2338.809756 2089.417481,2341.848540"/>
    <poly id="201507027#1" type="building.yes" color="255,230,230" fill="1" layer="-1.00" shape="2089.417481,2341.848540 2093.829177,2358.647870 2096.945776,2357.828990 2103.303264,2382.018585 2111.986931,2379.755626 2111.512492,2378.124225 2101.273218,2338.809756 2089.417481,2341.848540"/>
    <poly id="201507028" type="amenity.restaurant" color="237,199,199" fill="1" layer="-1.00" shape="2045.088188,2352.230874 2048.894480,2367.979163 2061.895887,2364.712882 2057.958544,2349.167555 2045.088188,2352.230874"/>
    <poly id="201507028#1" type="building.yes" color="255,230,230" fill="1" layer="-1.00" shape="2045.088188,2352.230874 2048.894480,2367.979163 2061.895887,2364.712882 2057.958544,2349.167555 2045.088188,2352.230874"/>
    <poly id="201507029" type="amenity.theatre" color="237,199,199" fill="1" layer="-1.00" shape="1920.985158,2383.797505 1909.413266,2386.574379 1919.510561,2428.234278 1931.082401,2425.457413 1920.985158,2383.797505"/>
    <poly id="201507029#1" type="building.yes" color="255,230,230" fill="1" layer="-1.00" shape="1920.985158,2383.797505 1909.413266,2386.574379 1919.510561,2428.234278 1931.082401,2425.457413 1920.985158,2383.797505"/>
    <poly id="201507030" type="amenity.restaurant" color="237,199,199" fill="1" layer="-1.00" shape="1915.413866,2434.638127 1903.835506,2387.574837 1890.561592,2390.814632 1899.064748,2425.386605 1890.909503,2427.381716 1893.975726,2439.873236 1915.413866,2434.638127"/>
    <poly id="201507030#1" type="building.yes" color="255,230,230" fill="1" layer="-1.00" shape="1915.413866,2434.638127 1903.835506,2387.574837 1890.561592,2390.814632 1899.064748,2425.386605 1890.909503,2427.381716 1893.975726,2439.873236 1915.413866,2434.638127"/>
    <poly id="201507030#2" type="shop.deli" color="237,199,255" fill="1" layer="-1.00" shape="1915.413866,2434.638127 1903.835506,2387.574837 1890.561592,2390.814632 1899.064748,2425.386605 1890.909503,2427.381716 1893.975726,2439.873236 1915.413866,2434.638127"/>
    <poly id="201507031" type="amenity.parking" color="184,184,179" fill="1" layer="-1.00" shape="2047.440785,2455.395666 2057.227185,2453.006144 2086.054863,2445.972566 2074.673904,2399.914483 2072.203166,2389.928320 2037.977249,2399.023601 2038.517416,2402.251853 2037.401302,2405.209253 2034.639989,2406.852105 2047.440785,2455.395666"/>