<?xml version="1.0" encoding="UTF-8"?>

<!-- generated on 2021-06-03 14:30:38 by Eclipse SUMO duarouter Version 1.9.1
<configuration xmlns:xsi="http://www.w3.org/2001/XMLSchema-instance" xsi:noNamespaceSchemaLocation="http://sumo.dlr.de/xsd/duarouterConfiguration.xsd">

    <input>
        <net-file value="C:\Users\Matt\Sumo\2021-06-03-14-30-21\osm.net.xml"/>
        <route-files value="C:\Users\Matt\Sumo\2021-06-03-14-30-21\osm.passenger.trips.xml"/>
    </input>

    <output>
        <output-file value="C:\Users\Matt\Sumo\2021-06-03-14-30-21\osm.passenger.trips.xml.tmp"/>
        <write-trips value="true"/>
    </output>

    <time>
        <begin value="0"/>
        <end value="3600"/>
    </time>

    <report>
        <no-warnings value="true"/>
        <ignore-errors value="true"/>
        <no-step-log value="true"/>
    </report>

</configuration>
-->

<routes xmlns:xsi="http://www.w3.org/2001/XMLSchema-instance" xsi:noNamespaceSchemaLocation="http://sumo.dlr.de/xsd/routes_file.xsd">
    <vType id="veh_passenger" vClass="passenger"/>
    <trip id="veh0" type="veh_passenger" depart="0.00" departLane="best" from="16728645#5" to="-16721885#1"/>
    <trip id="veh1" type="veh_passenger" depart="1.59" departLane="best" from="-171702739#0" to="-171294543#1"/>
    <trip id="veh2" type="veh_passenger" depart="3.18" departLane="best" from="252997247#1" to="16729624#2"/>
    <trip id="veh3" type="veh_passenger" depart="4.77" departLane="best" from="827879058" to="-16724492#1"/>
    <trip id="veh4" type="veh_passenger" depart="6.36" departLane="best" from="-906700200#2" to="-16722369#12"/>
    <trip id="veh5" type="veh_passenger" depart="7.95" departLane="best" from="-16729162#6" to="16723221"/>
    <trip id="veh7" type="veh_passenger" depart="11.13" departLane="best" departSpeed="max" from="-16729237#1" to="16726729"/>
    <trip id="veh8" type="veh_passenger" depart="12.72" departLane="best" from="361221999" to="-16721208"/>
    <trip id="veh9" type="veh_passenger" depart="14.31" departLane="best" from="361221975#5" to="171294543#2"/>
    <trip id="veh10" type="veh_passenger" depart="15.90" departLane="best" from="-339859632#0" to="-16727721"/>
    <trip id="veh11" type="veh_passenger" depart="17.49" departLane="best" from="906844750#1" to="-575306227#0"/>
    <trip id="veh12" type="veh_passenger" depart="19.08" departLane="best" from="-16724289#0" to="-16725413#1"/>
    <trip id="veh13" type="veh_passenger" depart="20.67" departLane="best" from="51724096#6" to="16727204#1"/>
    <trip id="veh14" type="veh_passenger" depart="22.26" departLane="best" from="361221976#3" to="252994607#1"/>
    <trip id="veh15" type="veh_passenger" depart="23.85" departLane="best" from="16724159#0" to="906939353#1"/>
    <trip id="veh16" type="veh_passenger" depart="25.44" departLane="best" departSpeed="max" from="-631634872" to="16725296#0"/>
    <trip id="veh17" type="veh_passenger" depart="27.03" departLane="best" departSpeed="max" from="437690574#0" to="16727700#1"/>
    <trip id="veh18" type="veh_passenger" depart="28.62" departLane="best" from="51724102#2" to="16726164#12"/>
    <trip id="veh19" type="veh_passenger" depart="30.21" departLane="best" from="171488547#14" to="-16722860#0"/>
    <trip id="veh20" type="veh_passenger" depart="31.80" departLane="best" departSpeed="max" from="-16729399#4" to="-314153602#3"/>
    <trip id="veh21" type="veh_passenger" depart="33.39" departLane="best" departSpeed="max" from="-16724028#1" to="-171488545#3"/>
    <trip id="veh22" type="veh_passenger" depart="34.98" departLane="best" from="-16724429#1" to="-255973752#2"/>
    <trip id="veh23" type="veh_passenger" depart="36.57" departLane="best" from="16728602#3" to="-904622820"/>
    <trip id="veh24" type="veh_passenger" depart="38.16" departLane="best" departSpeed="max" from="-575306227#1" to="-170301674#2"/>
    <trip id="veh25" type="veh_passenger" depart="39.75" departLane="best" from="-171488545#3" to="906425993#2"/>
    <trip id="veh26" type="veh_passenger" depart="41.34" departLane="best" departSpeed="max" from="16729237#0" to="16727358#3"/>
    <trip id="veh27" type="veh_passenger" depart="42.93" departLane="best" from="-16727394#3" to="252994606#5"/>
    <trip id="veh28" type="veh_passenger" depart="44.52" departLane="best" departSpeed="max" from="-16727204#1" to="-906419465#2"/>
    <trip id="veh29" type="veh_passenger" depart="46.11" departLane="best" from="911248049#0" to="16728512"/>
    <trip id="veh30" type="veh_passenger" depart="47.70" departLane="best" from="16724923#0" to="16729794#3"/>
    <trip id="veh31" type="veh_passenger" depart="49.29" departLane="best" from="51724094#3" to="255973733#6"/>
    <trip id="veh32" type="veh_passenger" depart="50.88" departLane="best" from="-16729442#2" to="-16722369#7"/>
    <trip id="veh33" type="veh_passenger" depart="52.47" departLane="best" from="-255973752#1" to="-255973733#0"/>
    <trip id="veh34" type="veh_passenger" depart="54.06" departLane="best" departSpeed="max" from="-16728658" to="906700200#3"/>
    <trip id="veh35" type="veh_passenger" depart="55.65" departLane="best" departSpeed="max" from="637060474#0" to="-389592520#1"/>
    <trip id="veh36" type="veh_passenger" depart="57.24" departLane="best" from="16729399#3" to="-906700207#1"/>
    <trip id="veh37" type="veh_passenger" depart="58.83" departLane="best" departSpeed="max" from="904622820" to="16721792#1"/>
    <trip id="veh38" type="veh_passenger" depart="60.42" departLane="best" from="-171488544#2" to="-252994602#0"/>
    <trip id="veh39" type="veh_passenger" depart="62.01" departLane="best" from="16725409#1" to="-253130291#1"/>
    <trip id="veh40" type="veh_passenger" depart="63.60" departLane="best" from="16726341#2" to="846419887#2"/>
    <trip id="veh41" type="veh_passenger" depart="65.19" departLane="best" from="-904622818#2" to="-171004421#8"/>
    <trip id="veh42" type="veh_passenger" depart="66.78" departLane="best" from="911258380#4" to="16723365#1"/>
    <trip id="veh43" type="veh_passenger" depart="68.37" departLane="best" departSpeed="max" from="-16724259" to="-16722860#1"/>
    <trip id="veh44" type="veh_passenger" depart="69.96" departLane="best" departSpeed="max" from="-16724882#5" to="16728002#2"/>
    <trip id="veh45" type="veh_passenger" depart="71.55" departLane="best" from="321760060#5" to="-906939358#3"/>
    <trip id="veh46" type="veh_passenger" depart="73.14" departLane="best" from="-16723213#0" to="-906425993#4"/>
    <trip id="veh47" type="veh_passenger" depart="74.73" departLane="best" from="911258379#2" to="16724165"/>
    <trip id="veh48" type="veh_passenger" depart="76.32" departLane="best" departSpeed="max" from="906939354" to="51724100#1"/>
    <trip id="veh49" type="veh_passenger" depart="77.91" departLane="best" departSpeed="max" from="-16721393" to="171702740#2"/>
    <trip id="veh50" type="veh_passenger" depart="79.50" departLane="best" departSpeed="max" from="170301687#0" to="16724403#2"/>
    <trip id="veh51" type="veh_passenger" depart="81.09" departLane="best" from="-171488545#3" to="16728602#1"/>
    <trip id="veh52" type="veh_passenger" depart="82.68" departLane="best" from="-16724923#2" to="-911258380#5"/>
    <trip id="veh53" type="veh_passenger" depart="84.27" departLane="best" from="-906939358#7" to="906700209#1"/>
    <trip id="veh54" type="veh_passenger" depart="85.86" departLane="best" departSpeed="max" from="637060474#0" to="-253130291#1"/>
    <trip id="veh55" type="veh_passenger" depart="87.45" departLane="best" from="16722413#0" to="-16729035#0"/>
    <trip id="veh56" type="veh_passenger" depart="89.04" departLane="best" from="904622818#5" to="575306227#1"/>
    <trip id="veh57" type="veh_passenger" depart="90.63" departLane="best" departSpeed="max" from="-252997248#1" to="16728512"/>
    <trip id="veh58" type="veh_passenger" depart="92.22" departLane="best" from="16727273#1" to="-16727700#0"/>
    <trip id="veh59" type="veh_passenger" depart="93.81" departLane="best" from="253272375#0" to="16724412#0"/>
    <trip id="veh60" type="veh_passenger" depart="95.40" departLane="best" departSpeed="max" from="294774642#0" to="16724259"/>
    <trip id="veh61" type="veh_passenger" depart="96.99" departLane="best" from="-16720145#1" to="-514049372#0"/>
    <trip id="veh63" type="veh_passenger" depart="100.17" departLane="best" departSpeed="max" from="637060474#0" to="364547008#6"/>
    <trip id="veh64" type="veh_passenger" depart="101.76" departLane="best" from="-255973733#1" to="-16723412#0"/>
    <trip id="veh65" type="veh_passenger" depart="103.35" departLane="best" departSpeed="max" from="637060474#0" to="906700206#2"/>
    <trip id="veh66" type="veh_passenger" depart="104.94" departLane="best" departSpeed="max" from="-16723270" to="253130297#1"/>
    <trip id="veh67" type="veh_passenger" depart="106.53" departLane="best" from="255973733#2" to="-16726822#6"/>
    <trip id="veh68" type="veh_passenger" depart="108.12" departLane="best" from="-171488544#2" to="575372512#1"/>
    <trip id="veh69" type="veh_passenger" depart="109.71" departLane="best" from="-906700200#5" to="-170301685#0"/>
    <trip id="veh70" type="veh_passenger" depart="111.30" departLane="best" from="16724289#3" to="252994607#1"/>
    <trip id="veh71" type="veh_passenger" depart="112.89" departLane="best" from="-16728602#3" to="-361222003#5"/>
    <trip id="veh72" type="veh_passenger" depart="114.49" departLane="best" from="911258379#0" to="16728656"/>
    <trip id="veh73" type="veh_passenger" depart="116.08" departLane="best" from="-906700215#2" to="16724028#1"/>
    <trip id="veh74" type="veh_passenger" depart="117.67" departLane="best" from="-16725685#10" to="-171294549#3"/>
    <trip id="veh75" type="veh_passenger" depart="119.26" departLane="best" from="-325021549" to="16726729"/>
    <trip id="veh76" type="veh_passenger" depart="120.85" departLane="best" from="-16729442#5" to="-171004421#8"/>
    <trip id="veh77" type="veh_passenger" depart="122.44" departLane="best" departSpeed="max" from="-16723365#1" to="16728291#1"/>
    <trip id="veh78" type="veh_passenger" depart="124.03" departLane="best" from="-16729442#2" to="846419890#6"/>
    <trip id="veh79" type="veh_passenger" depart="125.62" departLane="best" departSpeed="max" from="51724102#0" to="-16724159#2"/>
    <trip id="veh80" type="veh_passenger" depart="127.21" departLane="best" from="-16729754" to="16729399#3"/>
    <trip id="veh81" type="veh_passenger" depart="128.80" departLane="best" departSpeed="max" from="-16728814#2" to="-16727006"/>
    <trip id="veh82" type="veh_passenger" depart="130.39" departLane="best" from="906700199#0" to="16725789#4"/>
    <trip id="veh83" type="veh_passenger" depart="131.98" departLane="best" departSpeed="max" from="16721382#0" to="255973752#4"/>
    <trip id="veh84" type="veh_passenger" depart="133.57" departLane="best" from="361221976#6" to="-16729442#1"/>
    <trip id="veh85" type="veh_passenger" depart="135.16" departLane="best" from="-16724403#0" to="-911258378#3"/>
    <trip id="veh86" type="veh_passenger" depart="136.75" departLane="best" from="-906700200#6" to="16722302#1"/>
    <trip id="veh87" type="veh_passenger" depart="138.34" departLane="best" from="252995527#0" to="16729624#1"/>
    <trip id="veh88" type="veh_passenger" depart="139.93" departLane="best" from="-904622822#4" to="-575389179"/>
    <trip id="veh89" type="veh_passenger" depart="141.52" departLane="best" from="51724102#2" to="-252994606#1"/>
    <trip id="veh90" type="veh_passenger" depart="143.11" departLane="best" from="-906700200#2" to="-265149485#0"/>
    <trip id="veh91" type="veh_passenger" depart="144.70" departLane="best" from="-171004421#2" to="904622823#1"/>
    <trip id="veh92" type="veh_passenger" depart="146.29" departLane="best" from="-906939351#2" to="51724100#1"/>
    <trip id="veh93" type="veh_passenger" depart="147.88" departLane="best" from="16724429#0" to="-16722930#1"/>
    <trip id="veh94" type="veh_passenger" depart="149.47" departLane="best" from="912613953#1" to="364573806"/>
    <trip id="veh95" type="veh_passenger" depart="151.06" departLane="best" from="906939353#0" to="905646842#1"/>
    <trip id="veh96" type="veh_passenger" depart="152.65" departLane="best" from="51724096#8" to="-16728507#0"/>
    <trip id="veh97" type="veh_passenger" depart="154.24" departLane="best" departSpeed="max" from="16721785" to="-171004421#1"/>
    <trip id="veh98" type="veh_passenger" depart="155.83" departLane="best" from="-904622822#0" to="-16723417#1"/>
    <trip id="veh99" type="veh_passenger" depart="157.42" departLane="best" from="-637038338#0" to="906939364"/>
    <trip id="veh100" type="veh_passenger" depart="159.01" departLane="best" from="-171488544#3" to="255973752#4"/>
    <trip id="veh101" type="veh_passenger" depart="160.60" departLane="best" from="-906939364" to="-906939358#4"/>
    <trip id="veh102" type="veh_passenger" depart="162.19" departLane="best" from="906844750#2" to="911258379#1"/>
    <trip id="veh103" type="veh_passenger" depart="163.78" departLane="best" from="16724882#1" to="171702739#2"/>
    <trip id="veh104" type="veh_passenger" depart="165.37" departLane="best" from="-16726822#4" to="-361221973#1"/>
    <trip id="veh105" type="veh_passenger" depart="166.96" departLane="best" from="906939352#1" to="16726164#5"/>
    <trip id="veh106" type="veh_passenger" depart="168.55" departLane="best" from="16724398#3" to="252997247#2"/>
    <trip id="veh107" type="veh_passenger" depart="170.14" departLane="best" from="-16723052#1" to="16726354#3"/>
    <trip id="veh108" type="veh_passenger" depart="171.73" departLane="best" from="16722515#0" to="51724096#3"/>
    <trip id="veh109" type="veh_passenger" depart="173.32" departLane="best" from="-16726825#3" to="906844744"/>
    <trip id="veh110" type="veh_passenger" depart="174.91" departLane="best" from="-16724138#0" to="-16729324#1"/>
    <trip id="veh111" type="veh_passenger" depart="176.50" departLane="best" from="16726825#0" to="16729624#14"/>
    <trip id="veh112" type="veh_passenger" depart="178.09" departLane="best" from="-16729624#5" to="-16726354#1"/>
    <trip id="veh113" type="veh_passenger" depart="179.68" departLane="best" from="756596351#1" to="-252994602#0"/>
    <trip id="veh114" type="veh_passenger" depart="181.27" departLane="best" from="16726822#6" to="16727721"/>
    <trip id="veh115" type="veh_passenger" depart="182.86" departLane="best" from="-906700197#0" to="16726354#2"/>
    <trip id="veh116" type="veh_passenger" depart="184.45" departLane="best" from="16723365#0" to="906420784"/>
    <trip id="veh117" type="veh_passenger" depart="186.04" departLane="best" departSpeed="max" from="-16728608" to="171702737#3"/>
    <trip id="veh118" type="veh_passenger" depart="187.63" departLane="best" from="-16729764#1" to="-906700207#1"/>
    <trip id="veh119" type="veh_passenger" depart="189.22" departLane="best" from="16729791#1" to="-361221974#4"/>
    <trip id="veh120" type="veh_passenger" depart="190.81" departLane="best" from="-255973752#1" to="252997248#1"/>
    <trip id="veh121" type="veh_passenger" depart="192.40" departLane="best" from="-16723412#0" to="16721791#4"/>
    <trip id="veh122" type="veh_passenger" depart="193.99" departLane="best" from="912613952#0" to="911258379#2"/>
    <trip id="veh123" type="veh_passenger" depart="195.58" departLane="best" from="-16723417#1" to="-171004421#0"/>
    <trip id="veh124" type="veh_passenger" depart="197.17" departLane="best" from="-171488544#3" to="906419465#2"/>
    <trip id="veh125" type="veh_passenger" depart="198.76" departLane="best" from="637060474#4" to="631634872"/>
    <trip id="veh126" type="veh_passenger" depart="200.35" departLane="best" from="-575306227#0" to="-16727930#0"/>
    <trip id="veh127" type="veh_passenger" depart="201.94" departLane="best" from="474072165#0" to="171294553#5"/>
    <trip id="veh128" type="veh_passenger" depart="203.53" departLane="best" from="16727358#5" to="908942267#1"/>
    <trip id="veh129" type="veh_passenger" depart="205.12" departLane="best" from="16729399#0" to="-16721382#0"/>
    <trip id="veh130" type="veh_passenger" depart="206.71" departLane="best" from="361222003#10" to="-361221974#3"/>
    <trip id="veh131" type="veh_passenger" depart="208.30" departLane="best" from="16729624#8" to="906700195"/>
    <trip id="veh132" type="veh_passenger" depart="209.89" departLane="best" from="-16726039#1" to="-16726164#5"/>
    <trip id="veh133" type="veh_passenger" depart="211.48" departLane="best" departSpeed="max" from="-16724850#6" to="16725296#3"/>
    <trip id="veh134" type="veh_passenger" depart="213.07" departLane="best" from="-171702737#0" to="16727204#1"/>
    <trip id="veh135" type="veh_passenger" depart="214.66" departLane="best" departSpeed="max" from="252994602#0" to="-16729766#0"/>
    <trip id="veh136" type="veh_passenger" depart="216.25" departLane="best" from="16728507#4" to="-253130291#2"/>
    <trip id="veh137" type="veh_passenger" depart="217.84" departLane="best" from="16721791#4" to="846419890#6"/>
    <trip id="veh138" type="veh_passenger" depart="219.43" departLane="best" from="51724096#5" to="-16725296#0"/>
    <trip id="veh139" type="veh_passenger" depart="221.02" departLane="best" from="-906700200#6" to="-255973752#1"/>
    <trip id="veh141" type="veh_passenger" depart="224.20" departLane="best" from="16728602#7" to="-252997247#9"/>
    <trip id="veh142" type="veh_passenger" depart="225.79" departLane="best" from="252997247#20" to="16725091"/>
    <trip id="veh143" type="veh_passenger" depart="227.38" departLane="best" from="-906700206#2" to="-16721382#2"/>
    <trip id="veh144" type="veh_passenger" depart="228.97" departLane="best" from="-16723629#3" to="637038338#6"/>
    <trip id="veh145" type="veh_passenger" depart="230.56" departLane="best" from="904622813#0" to="16724850#6"/>
    <trip id="veh146" type="veh_passenger" depart="232.15" departLane="best" from="474072165#1" to="16726341#3"/>
    <trip id="veh147" type="veh_passenger" depart="233.74" departLane="best" departSpeed="max" from="-16726729" to="-16726822#3"/>
    <trip id="veh148" type="veh_passenger" depart="235.33" departLane="best" from="-255973733#2" to="846419887#2"/>
    <trip id="veh149" type="veh_passenger" depart="236.92" departLane="best" from="339859633#0" to="51724100#1"/>
    <trip id="veh150" type="veh_passenger" depart="238.51" departLane="best" from="846419890#6" to="-170301685#0"/>
    <trip id="veh151" type="veh_passenger" depart="240.10" departLane="best" from="-171004421#2" to="-16725686#0"/>
    <trip id="veh153" type="veh_passenger" depart="243.28" departLane="best" departSpeed="max" from="-905646842#1" to="16727879"/>
    <trip id="veh155" type="veh_passenger" depart="246.46" departLane="best" from="51724105#3" to="906939358#0"/>
    <trip id="veh156" type="veh_passenger" depart="248.05" departLane="best" from="361222002#0" to="637038338#4"/>
    <trip id="veh157" type="veh_passenger" depart="249.64" departLane="best" departSpeed="max" from="-16721910" to="252995533#3"/>
    <trip id="veh159" type="veh_passenger" depart="252.82" departLane="best" from="361221975#0" to="51724102#2"/>
    <trip id="veh160" type="veh_passenger" depart="254.41" departLane="best" from="361222002#0" to="-253275178#1"/>
    <trip id="veh161" type="veh_passenger" depart="256.00" departLane="best" from="314153605#2" to="-16725789#1"/>
    <trip id="veh162" type="veh_passenger" depart="257.59" departLane="best" from="575390995#0" to="51724097#2"/>
    <trip id="veh163" type="veh_passenger" depart="259.18" departLane="best" from="-16729324#2" to="361221975#4"/>
    <trip id="veh164" type="veh_passenger" depart="260.77" departLane="best" from="-911258379#0" to="-361221975#5"/>
    <trip id="veh165" type="veh_passenger" depart="262.36" departLane="best" from="339859632#0" to="-171294553#6"/>
    <trip id="veh166" type="veh_passenger" depart="263.95" departLane="best" departSpeed="max" from="-16721910" to="-16729624#11"/>
    <trip id="veh167" type="veh_passenger" depart="265.54" departLane="best" from="-282168226" to="51724102#2"/>
    <trip id="veh168" type="veh_passenger" depart="267.13" departLane="best" from="906939351#1" to="-265149485#0"/>
    <trip id="veh169" type="veh_passenger" depart="268.72" departLane="best" departSpeed="max" from="16728814#0" to="-906700212"/>
    <trip id="veh170" type="veh_passenger" depart="270.31" departLane="best" from="906939358#6" to="16724403#0"/>
    <trip id="veh171" type="veh_passenger" depart="271.90" departLane="best" from="906700200#7" to="-16726164#5"/>
    <trip id="veh172" type="veh_passenger" depart="273.49" departLane="best" departSpeed="max" from="906939354" to="-16729035#0"/>
    <trip id="veh173" type="veh_passenger" depart="275.08" departLane="best" departSpeed="max" from="906939350" to="-253130294"/>
    <trip id="veh174" type="veh_passenger" depart="276.67" departLane="best" from="-16724882#2" to="-911258380#5"/>
    <trip id="veh175" type="veh_passenger" depart="278.26" departLane="best" from="252995526#1" to="-389318890#1"/>
    <trip id="veh176" type="veh_passenger" depart="279.85" departLane="best" from="16727209#1" to="16723417#1"/>
    <trip id="veh177" type="veh_passenger" depart="281.44" departLane="best" from="-712076414#4" to="16726164#10"/>
    <trip id="veh178" type="veh_passenger" depart="283.03" departLane="best" from="-171004796#0" to="171488545#2"/>
    <trip id="veh179" type="veh_passenger" depart="284.62" departLane="best" from="-16721125#1" to="905646842#1"/>
    <trip id="veh180" type="veh_passenger" depart="286.21" departLane="best" from="16724166#1" to="171702740#1"/>
    <trip id="veh181" type="veh_passenger" depart="287.80" departLane="best" from="252997247#4" to="16729399#4"/>
    <trip id="veh182" type="veh_passenger" depart="289.39" departLane="best" from="-514049375#2" to="-16724159#0"/>
    <trip id="veh183" type="veh_passenger" depart="290.98" departLane="best" departSpeed="max" from="16729641#0" to="-51724099"/>
    <trip id="veh184" type="veh_passenger" depart="292.57" departLane="best" from="-255973733#9" to="474072166#0"/>
    <trip id="veh185" type="veh_passenger" depart="294.16" departLane="best" from="252994603#1" to="-361221974#5"/>
    <trip id="veh186" type="veh_passenger" depart="295.75" departLane="best" from="-255973733#3" to="-906939350"/>
    <trip id="veh187" type="veh_passenger" depart="297.34" departLane="best" from="-904622822#3" to="-339859633#0"/>
    <trip id="veh188" type="veh_passenger" depart="298.93" departLane="best" from="-16725686#5" to="-906939358#1"/>
    <trip id="veh189" type="veh_passenger" depart="300.52" departLane="best" from="906700206#0" to="16729624#3"/>
    <trip id="veh190" type="veh_passenger" depart="302.11" departLane="best" from="904622812#4" to="16727485#0"/>
    <trip id="veh191" type="veh_passenger" depart="303.70" departLane="best" from="-253130291#1" to="16724882#4"/>
    <trip id="veh192" type="veh_passenger" depart="305.29" departLane="best" from="-16720145#1" to="-314153599#1"/>
    <trip id="veh193" type="veh_passenger" depart="306.88" departLane="best" from="-906700206#4" to="16726164#7"/>
    <trip id="veh194" type="veh_passenger" depart="308.47" departLane="best" from="16729399#2" to="16722253#0"/>
    <trip id="veh195" type="veh_passenger" depart="310.06" departLane="best" from="-906939351#1" to="-171004421#1"/>
    <trip id="veh196" type="veh_passenger" depart="311.65" departLane="best" departSpeed="max" from="16721382#0" to="846419889#2"/>
    <trip id="veh197" type="veh_passenger" depart="313.24" departLane="best" from="339859633#0" to="-16728602#2"/>
    <trip id="veh198" type="veh_passenger" depart="314.83" departLane="best" departSpeed="max" from="-16724145#3" to="16723636#1"/>
    <trip id="veh199" type="veh_passenger" depart="316.42" departLane="best" from="16728507#1" to="-51724102#2"/>
    <trip id="veh200" type="veh_passenger" depart="318.01" departLane="best" from="361222003#4" to="252997248#0"/>
    <trip id="veh201" type="veh_passenger" depart="319.60" departLane="best" from="16729794#3" to="-171294549#3"/>
    <trip id="veh202" type="veh_passenger" depart="321.19" departLane="best" departSpeed="max" from="-16728512" to="-16721822#1"/>
    <trip id="veh203" type="veh_passenger" depart="322.78" departLane="best" from="-170301674#0" to="16722378#3"/>
    <trip id="veh204" type="veh_passenger" depart="324.37" departLane="best" from="51724096#9" to="-16724289#0"/>
    <trip id="veh205" type="veh_passenger" depart="325.96" departLane="best" from="-906419465#3" to="16728072#1"/>
    <trip id="veh206" type="veh_passenger" depart="327.55" departLane="best" from="-16728507#1" to="171004796#6"/>
    <trip id="veh207" type="veh_passenger" depart="329.14" departLane="best" from="16722369#10" to="-171702741#1"/>
    <trip id="veh208" type="veh_passenger" depart="330.73" departLane="best" from="16729442#2" to="-16721208"/>
    <trip id="veh210" type="veh_passenger" depart="333.91" departLane="best" departSpeed="max" from="-16724850#6" to="-906939358#7"/>
    <trip id="veh211" type="veh_passenger" depart="335.50" departLane="best" from="-16727500" to="906700215#2"/>
    <trip id="veh212" type="veh_passenger" depart="337.09" departLane="best" from="16723170#2" to="-16722901#1"/>
    <trip id="veh213" type="veh_passenger" depart="338.68" departLane="best" from="-171004421#2" to="474072166#0"/>
    <trip id="veh214" type="veh_passenger" depart="340.28" departLane="best" from="-907124732#1" to="321760060#5"/>
    <trip id="veh215" type="veh_passenger" depart="341.87" departLane="best" departSpeed="max" from="16729665#0" to="911248048"/>
    <trip id="veh216" type="veh_passenger" depart="343.46" departLane="best" from="16726825#1" to="906700207#0"/>
    <trip id="veh217" type="veh_passenger" depart="345.05" departLane="best" from="756596351#4" to="16727400#1"/>
    <trip id="veh218" type="veh_passenger" depart="346.64" departLane="best" from="252994602#2" to="16723219#2"/>
    <trip id="veh219" type="veh_passenger" depart="348.23" departLane="best" from="437690574#2" to="16724882#2"/>
    <trip id="veh220" type="veh_passenger" depart="349.82" departLane="best" from="846419890#3" to="252997247#1"/>
    <trip id="veh221" type="veh_passenger" depart="351.41" departLane="best" from="16721382#2" to="-252997247#2"/>
    <trip id="veh222" type="veh_passenger" depart="353.00" departLane="best" from="-171004421#0" to="16728507#5"/>
    <trip id="veh223" type="veh_passenger" depart="354.59" departLane="best" from="255973733#2" to="16724138#6"/>
    <trip id="veh224" type="veh_passenger" depart="356.18" departLane="best" from="16728003" to="-255973733#9"/>
    <trip id="veh225" type="veh_passenger" depart="357.77" departLane="best" departSpeed="max" from="-16723636#1" to="-314153597#1"/>
    <trip id="veh226" type="veh_passenger" depart="359.36" departLane="best" from="-171488548#1" to="-474072165#0"/>
    <trip id="veh227" type="veh_passenger" depart="360.95" departLane="best" departSpeed="max" from="16724398#0" to="-16727085#9"/>
    <trip id="veh228" type="veh_passenger" depart="362.54" departLane="best" from="-16729624#11" to="171004421#8"/>
    <trip id="veh229" type="veh_passenger" depart="364.13" departLane="best" from="171488547#8" to="-16724138#2"/>
    <trip id="veh230" type="veh_passenger" depart="365.72" departLane="best" departSpeed="max" from="-906383521" to="16724850#0"/>
    <trip id="veh231" type="veh_passenger" depart="367.31" departLane="best" departSpeed="max" from="-906420784" to="-16729794#5"/>
    <trip id="veh232" type="veh_passenger" depart="368.90" departLane="best" from="-906700198#2" to="846419890#5"/>
    <trip id="veh233" type="veh_passenger" depart="370.49" departLane="best" from="16726341#1" to="171004796#2"/>
    <trip id="veh234" type="veh_passenger" depart="372.08" departLane="best" departSpeed="max" from="51724102#0" to="253132781#1"/>
    <trip id="veh235" type="veh_passenger" depart="373.67" departLane="best" from="-637038338#3" to="-16721208"/>
    <trip id="veh236" type="veh_passenger" depart="375.26" departLane="best" from="-361221976#3" to="253130291#1"/>
    <trip id="veh237" type="veh_passenger" depart="376.85" departLane="best" from="51724100#2" to="906700209#0"/>
    <trip id="veh238" type="veh_passenger" depart="378.44" departLane="best" from="16724403#3" to="16727114#1"/>
    <trip id="veh239" type="veh_passenger" depart="380.03" departLane="best" departSpeed="max" from="-16729237#1" to="-171004421#8"/>
    <trip id="veh240" type="veh_passenger" depart="381.62" departLane="best" from="-906700212" to="-16722369#10"/>
    <trip id="veh241" type="veh_passenger" depart="383.21" departLane="best" from="-314153605#2" to="16729624#8"/>
    <trip id="veh242" type="veh_passenger" depart="384.80" departLane="best" from="-904622823#2" to="-16728488#1"/>
    <trip id="veh243" type="veh_passenger" depart="386.39" departLane="best" from="16721128#0" to="-16726822#4"/>
    <trip id="veh244" type="veh_passenger" depart="387.98" departLane="best" from="16727910#2" to="-16722175"/>
    <trip id="veh245" type="veh_passenger" depart="389.57" departLane="best" from="-16722232" to="16728602#6"/>
    <trip id="veh246" type="veh_passenger" depart="391.16" departLane="best" from="-16726058" to="16721910"/>
    <trip id="veh247" type="veh_passenger" depart="392.75" departLane="best" from="-16722772#3" to="-906419465#1"/>
    <trip id="veh248" type="veh_passenger" depart="394.34" departLane="best" from="-16728790#1" to="-514049375#0"/>
    <trip id="veh249" type="veh_passenger" depart="395.93" departLane="best" from="253132781#2" to="-906419465#1"/>
    <trip id="veh250" type="veh_passenger" depart="397.52" departLane="best" from="253130297#1" to="364547008#6"/>