<routes>
    <vType id="idm_vehicle" vClass="passenger" carFollowModel="IDM" minGap="2.5" accel="2.9" decel="7.5" emergencyDecel="9" tau="1.90816" delta="4" />
    <vType id="krauss_vehicle" vClass="passenger" carFollowModel="Krauss" />
    <vehicle id="veh0" type="idm_vehicle" depart="0.00" departLane="best">
        <route edges="16728645#5 -16724850#3 -16724850#2 -16724850#1 -16724850#0 904622813#0 904622813#1 904622813#2 16723820 906939360 911248048 253132779 218132216 906939359 361221996 -575389179 16729391 -575389180#3 -575389180#2 -575389180#1 253130291#1 253130291#2 253130291#6 -16721699#4 -16721885#2 -16721885#1" />
    </vehicle>
    <vehicle id="veh1" type="idm_vehicle" depart="1.59" departLane="best">
        <route edges="-171702739#0 16726164#3 16726164#4 16726164#5 16726164#6 16726164#7 16726164#9 -314153599#1 -314153602#3 -314153602#2 -314153602#1 -253130294 -748906478#1 -748906478#0 253130297#0 253130297#1 253130293 908942267#1 253130299#0 253130299#1 -575390995#1 -575390995#0 575390994 906700195 906858877#0 -16721699#4 -16721699#3 -16721699#2 -16721699#1 906419465#0 -171294543#1" />
    </vehicle>
    <vehicle id="veh2" type="idm_vehicle" depart="3.18" departLane="best">
        <route edges="252997247#1 -252997247#1 712076414#4 906700199#0 906700199#1 906700199#2 -906839017#2 846419886#1 846419886#2 846419890#1 846419890#2 846419890#3 846419890#5 846419890#6 846419890#7 904605189 321760061#0 314153599#1 314153599#2 361221973#1 361221973#2 361221973#3 361221973#4 -16729624#7 -16729624#6 -16729624#5 -16729624#4 -16729624#3 -16729624#2 16729624#2" />
    </vehicle>
    <vehicle id="veh3" type="idm_vehicle" depart="4.77" departLane="best">
        <route edges="827879058 171702737#0 171702737#1 171702737#2 171702737#3 904622822#4 904622822#5 904622822#6 361221973#1 16724398#7 16724398#8 16724398#9 -16724492#1" />
    </vehicle>
    <vehicle id="veh4" type="idm_vehicle" depart="6.36" departLane="best">
        <route edges="-906700200#2 906700200#2 906700200#3 906700200#4 906700200#5 906700200#6 906700200#7 906700200#8 906700200#9 906700200#10 16722369#1 16722369#2 16722369#3 16722369#4 16722369#6 16722369#7 16722369#8 16722369#9 16722369#10 16722369#11 16722369#12 -16722369#12" />
    </vehicle>
    <vehicle id="veh5" type="idm_vehicle" depart="7.95" departLane="best">
        <route edges="-16729162#6 -16726716#1 -16726716#0 16729162#1 16728892#0 846419890#5 846419890#6 846419890#7 904605189 321760061#0 -314153602#3 -314153602#2 -314153602#1 -253130294 -748906478#1 -748906478#0 253130297#0 253130297#1 253130293 908942267#1 253130299#0 253130299#1 -575390995#1 -575390995#0 575390994 906700195 906858877#0 -253130291#6 -253130291#2 -253130291#1 -906700215#2 -906700215#1 -906700215#0 -474072165#2 -474072165#1 -474072165#0 474072164 474072166#0 514049375#0 514049375#2 16727358#0 16727358#1 16727358#2 16727358#3 16727358#4 16727358#5 16723221" />
    </vehicle>
    <vehicle id="veh7" type="idm_vehicle" depart="11.13" departLane="best" departSpeed="max">
        <route edges="-16729237#1 51724094#2 51724094#3 756596351#1 756596351#2 756596351#3 756596351#4 756596351#5 51724098#0 16722378#1 16722378#2 16722378#3 16722378#4 16722378#6 -361222003#4 -361222003#3 -361222003#2 -361222003#1 16729399#0 16729399#1 16726729" />
    </vehicle>
    <vehicle id="veh8" type="idm_vehicle" depart="12.72" departLane="best">
        <route edges="361221999 -16728072#2 -16728072#1 -16728072#0 -906844749#1 51724096#7 51724096#8 51724096#9 -906856904 -575389179 16729391 -575389180#3 -575389180#2 -575389180#1 -171004421#8 -171004421#7 -171004421#5 -171004421#3 -171004421#2 -171004421#1 -171004421#0 -906700207#1 -906700207#0 -906425994 -906700208#7 -906700208#5 -906700208#4 -906700208#3 -906700208#2 -906700208#1 -906700208#0 -906700198#2 -906700198#1 -906839017#2 846419889#2 904605192 -170301685#1 -16721208" />
    </vehicle>
    <vehicle id="veh9" type="idm_vehicle" depart="14.31" departLane="best">
        <route edges="361221975#5 255973733#0 255973733#1 255973733#2 -906419465#3 -906419465#2 -906419465#1 171294543#2" />
    </vehicle>
    <vehicle id="veh10" type="idm_vehicle" depart="15.90" departLane="best">
        <route edges="-339859632#0 16724403#5 906383522#0 904622822#0 904622822#1 904622822#2 904622822#3 904622822#4 904622822#5 904622822#6 -314153599#2 -314153599#1 -321760061#0 -904605189 321760060#0 321760060#1 321760060#2 321760060#3 321760060#5 321760060#7 321760060#8 -170301674#3 -170301674#2 -170301674#1 -170301674#0 -437690574#2 -437690574#1 16724433#0 16724433#1 16724433#2 -16727721" />
    </vehicle>
    <vehicle id="veh11" type="idm_vehicle" depart="17.49" departLane="best">
        <route edges="906844750#1 -16722864#3 -16722864#2 16722175 16721125#0 16721125#1 575306227#0 -575306227#0" />
    </vehicle>
    <vehicle id="veh12" type="idm_vehicle" depart="19.08" departLane="best">
        <route edges="-16724289#0 389592520#1 -16723213#4 -16723213#3 -16723213#2 -16723213#1 -16725686#6 474072165#2 906700215#0 906700215#1 906700215#2 -171004421#8 -171004421#7 -171004421#5 -171004421#3 -171004421#2 -171004421#1 -171004421#0 -906700207#1 -906700207#0 -906425994 -906700208#7 -906700208#5 -906700208#4 -906700208#3 -906700208#2 -906700208#1 -906700208#0 -906700198#2 -906700198#1 -906839017#2 -170301674#3 -170301674#2 -170301674#1 -170301674#0 -437690574#2 -437690574#1 16724433#0 16724433#1 16724433#2 16724433#3 16725413#0 16725413#1 -16725413#1" />
    </vehicle>
    <vehicle id="veh13" type="idm_vehicle" depart="20.67" departLane="best">
        <route edges="51724096#6 -906844749#0 904622815#1 -171488547#14 -171488547#13 -171488547#11 16722757#2 16722757#3 16722757#4 16729624#17 16727204#1" />
    </vehicle>
    <vehicle id="veh14" type="idm_vehicle" depart="22.26" departLane="best">
        <route edges="361221976#3 361221976#6 906700206#2 906700206#3 906700206#4 906700206#5 -906700207#1 -906700207#0 -906425994 -906700208#7 -906700208#5 16722930#1 16722930#2 16722930#3 16727655#3 16727655#4 51724105#1 51724105#3 51724105#4 253130296#0 253130296#1 252994607#0 252994607#1" />
    </vehicle>
    <vehicle id="veh15" type="idm_vehicle" depart="23.85" departLane="best">
        <route edges="16724159#0 637060474#2 637060474#4 51724096#0 51724096#1 51724096#3 51724096#4 51724096#5 51724096#6 51724096#7 51724096#8 51724096#9 -906856904 -575389179 16729391 -575389180#3 -575389180#2 -575389180#1 -906700215#2 -906700215#1 -906700215#0 -255973733#4 -255973733#3 -255973733#2 -255973733#1 -255973733#0 -361221975#5 -361221975#4 -361221975#2 -361221975#1 -361221975#0 -906939353#1 906939353#1" />
    </vehicle>
    <vehicle id="veh16" type="idm_vehicle" depart="25.44" departLane="best" departSpeed="max">
        <route edges="-631634872 16721822#1 906939353#1 361221975#0 361221975#1 361221975#2 361221975#4 361221975#5 255973733#0 255973733#1 255973733#2 255973733#3 255973733#4 255973733#5 255973733#6 255973733#7 255973733#8 255973733#9 906939359 906856905 51724100#0 51724100#1 51724100#2 252997114#0 904622815#1 -171488547#14 -171488547#13 -171488547#11 -171488547#10 -171488547#9 -171488547#8 -171488547#7 -171488547#6 -171488547#5 -171488547#2 -171488547#0 16725296#0" />
    </vehicle>
    <vehicle id="veh17" type="idm_vehicle" depart="27.03" departLane="best" departSpeed="max">
        <route edges="437690574#0 437690574#1 437690574#2 437690574#3 170301674#1 170301674#2 170301674#3 906839017#2 -906700199#2 -906700199#1 -906700199#0 906700200#1 906700200#2 906700200#3 906700200#4 906700200#5 906700200#6 906700200#7 906700200#8 906700200#9 906700200#10 16722369#1 16722369#2 16722369#3 16722369#4 16722369#6 16722369#7 16722369#8 16722369#9 16722369#10 16722369#11 16722369#12 16722369#13 -51724102#3 -51724102#2 -51724102#1 -16722050 16727700#1" />
    </vehicle>
    <vehicle id="veh18" type="idm_vehicle" depart="28.62" departLane="best">
        <route edges="51724102#2 51724102#3 906700206#0 906700206#1 906700206#2 906700206#3 906700206#4 906700206#5 -906700207#1 -906700207#0 -906425994 -906700208#7 -906700208#5 16722930#1 16722930#2 16722930#3 16727655#3 16727655#4 51724105#1 51724105#3 51724105#4 253130296#0 253130296#1 748906478#0 748906478#1 253130294 16722864#1 16722864#2 16726164#11 16726164#12" />
    </vehicle>
    <vehicle id="veh19" type="idm_vehicle" depart="30.21" departLane="best">
        <route edges="171488547#14 904622814#0 904622814#1 904622814#2 904622814#6 904622814#7 904622812#0 904622812#1 904622812#2 904622812#3 904622812#4 904622813#0 904622813#1 904622813#2 -361222003#10 -361222003#9 -361222003#8 -361222003#7 -361222003#6 -361222003#5 -361222003#4 -361222003#3 -16728645#3 -16728645#2 -16722860#0" />
    </vehicle>
    <vehicle id="veh20" type="idm_vehicle" depart="31.80" departLane="best" departSpeed="max">
        <route edges="-16729399#4 -16729399#3 -16729399#2 -16729399#1 -16729399#0 361222003#1 361222003#2 361222003#3 361222003#4 361222003#5 361222003#6 361222003#7 361222003#8 361222003#9 361222003#10 16723820 906939360 911248048 253132779 218132216 906939359 361221996 -575389179 16729391 -575389180#3 -575389180#2 -575389180#1 253130291#1 253130291#2 253130291#6 748906477#1 748906477#2 748906477#3 906858876#0 906858876#1 575390995#0 575390995#1 51724105#0 51724105#1 51724105#3 51724105#4 253130296#0 253130296#1 748906478#0 748906478#1 253130294 314153602#1 314153602#2 314153602#3 -314153602#3" />
    </vehicle>
    <vehicle id="veh21" type="idm_vehicle" depart="33.39" departLane="best" departSpeed="max">
        <route edges="-16724028#1 -16724028#0 16729624#11 16729624#12 16729624#13 16729624#14 16729624#15 16729624#16 -16722757#4 -16722757#3 171488545#1 171488545#2 171488545#3 -171488545#3" />
    </vehicle>
    <vehicle id="veh22" type="idm_vehicle" depart="34.98" departLane="best">
        <route edges="-16724429#1 16722378#4 16722378#6 361222003#5 361222003#6 361222003#7 361222003#8 361222003#9 361222003#10 16723820 906939360 911248048 253132779 218132216 906939359 361221996 -575389179 16729391 -575389180#3 -575389180#2 -575389180#1 253130291#1 253130291#2 253130291#6 748906477#1 748906477#2 748906477#3 906858876#0 906858876#1 575390995#0 575390995#1 51724105#0 51724105#1 51724105#3 51724105#4 253130296#0 253130296#1 748906478#0 748906478#1 253130294 314153602#1 314153602#2 314153602#3 314153597#1 314153605#0 314153605#1 314153605#2 314153605#3 255973752#0 255973752#1 255973752#2 -255973752#2" />
    </vehicle>
    <vehicle id="veh23" type="idm_vehicle" depart="36.57" departLane="best">
        <route edges="16728602#3 16728602#4 16728602#5 16728602#6 16728602#7 906939353#0 906939353#1 361221975#0 361221975#1 361221975#2 361221975#4 361221975#5 255973733#0 255973733#1 255973733#2 255973733#3 255973733#4 255973733#5 255973733#6 255973733#7 255973733#8 255973733#9 906939358#0 906939358#1 906939358#2 906939358#3 906939358#4 906939358#5 906939358#6 906939358#7 16728072#0 16728072#1 -904622820" />
    </vehicle>
    <vehicle id="veh24" type="idm_vehicle" depart="38.16" departLane="best" departSpeed="max">
        <route edges="-575306227#1 -575306227#0 -16721125#1 -16721125#0 -16722175 -16722864#1 314153602#1 314153602#2 314153602#3 -321760061#0 -904605189 321760060#0 321760060#1 321760060#2 321760060#3 321760060#5 321760060#7 321760060#8 -170301674#3 -170301674#2" />
    </vehicle>
    <vehicle id="veh25" type="idm_vehicle" depart="39.75" departLane="best">
        <route edges="-171488545#3 171488545#3 904622818#0 904622818#1 904622818#2 904622818#3 51724096#0 51724096#1 51724096#3 51724096#4 51724096#5 51724096#6 51724096#7 51724096#8 51724096#9 -906856904 -575389179 16729391 -575389180#3 -575389180#2 -575389180#1 -171004421#8 -171004421#7 -171004421#5 -171004421#3 -171004421#2 -171004421#1 -171004421#0 906425993#0 906425993#1 906425993#2" />
    </vehicle>
    <vehicle id="veh26" type="idm_vehicle" depart="41.34" departLane="best" departSpeed="max">
        <route edges="16729237#0 51724094#2 51724094#3 756596351#1 756596351#2 756596351#3 756596351#4 756596351#5 51724098#0 51724098#2 16727358#0 16727358#1 16727358#2 16727358#3" />
    </vehicle>
    <vehicle id="veh27" type="idm_vehicle" depart="42.93" departLane="best">
        <route edges="-16727394#3 16727394#3 16727394#4 474072165#1 474072165#2 906700215#0 906700215#1 906700215#2 575389180#1 575389180#2 575389180#3 906700214 906700211 575389179 906856904 51724100#0 51724100#1 51724100#2 252997115#0 252997115#1 -911258378#5 -911258378#4 -911258378#3 252994611#1 252994611#2 252994611#3 252994611#4 252994611#5 252994611#6 252994611#7 252994601#0 252994601#1 -389318890#1 -252994606#5 252994606#5" />
    </vehicle>
    <vehicle id="veh28" type="idm_vehicle" depart="44.52" departLane="best" departSpeed="max">
        <route edges="-16727204#1 -16729624#17 -16722757#4 -16722757#3 -16722757#2 171488547#11 171488547#13 171488547#14 904622814#0 904622814#1 904622814#2 51724096#5 51724096#6 51724096#7 51724096#8 51724096#9 -906856904 -575389179 16729391 -575389180#3 -575389180#2 -575389180#1 -171004421#8 -171004421#7 -171004421#5 688535331#0 -171294549#2 906419465#2 -906419465#2" />
    </vehicle>
    <vehicle id="veh29" type="idm_vehicle" depart="46.11" departLane="best">
        <route edges="911248049#0 911248049#1 -16721196#4 -16721196#3 -16721196#0 -16724159#3 -16724159#2 -16724159#1 637060474#2 637060474#4 51724096#0 51724096#1 51724096#3 51724096#4 51724096#5 51724096#6 51724096#7 51724096#8 51724096#9 -906856904 -575389179 16729391 -575389180#3 -575389180#2 -575389180#1 253130291#1 253130291#2 253130291#6 748906477#1 748906477#2 748906477#3 906858876#0 906858876#1 575390995#0 575390995#1 51724105#0 51724105#1 51724105#3 51724105#4 253130296#0 253130296#1 748906478#0 748906478#1 253130294 314153602#1 314153602#2 314153602#3 314153597#1 314153605#0 314153605#1 314153605#2 314153605#3 255973752#0 255973752#1 255973752#2 -16724405#2 16728512" />
    </vehicle>
    <vehicle id="veh30" type="idm_vehicle" depart="47.70" departLane="best">
        <route edges="16724923#0 904622822#6 -314153599#2 -314153599#1 -321760061#0 -904605189 321760060#0 321760060#1 321760060#2 321760060#3 321760060#5 321760060#7 321760060#8 906839017#2 906700198#1 906700198#2 16729794#1 16729794#2 16729794#3" />
    </vehicle>
    <vehicle id="veh31" type="idm_vehicle" depart="49.29" departLane="best">
        <route edges="51724094#3 -51724094#3 -51724094#2 -51724094#1 474072152#0 474072152#1 474072162 474072165#0 474072165#1 474072165#2 255973733#5 255973733#6" />
    </vehicle>
    <vehicle id="veh32" type="idm_vehicle" depart="50.88" departLane="best">
        <route edges="-16729442#2 -171488547#0 -16724398#10 -16724398#9 -16724398#8 -16724398#7 -361221973#1 -314153599#2 -314153599#1 -321760061#0 -904605189 321760060#0 321760060#1 321760060#2 321760060#3 321760060#5 321760060#7 321760060#8 906839017#2 -906700199#2 -906700199#1 -906700199#0 906700200#1 906700200#2 906700200#3 906700200#4 906700200#5 906700200#6 906700200#7 906700200#8 906700200#9 906700200#10 16722369#1 16722369#2 16722369#3 16722369#4 16722369#6 16722369#7 -16722369#7" />
    </vehicle>
    <vehicle id="veh33" type="idm_vehicle" depart="52.47" departLane="best">
        <route edges="-255973752#1 -255973752#0 -314153605#3 -314153605#2 -314153605#1 -314153605#0 -314153597#1 -314153602#3 -314153602#2 -314153602#1 -253130294 -748906478#1 -748906478#0 253130297#0 253130297#1 253130293 908942267#1 253130299#0 253130299#1 -575390995#1 -575390995#0 575390994 906700195 906858877#0 -253130291#6 -253130291#2 -253130291#1 -906700215#2 -906700215#1 -906700215#0 -255973733#4 -255973733#3 -255973733#2 -255973733#1 -255973733#0" />
    </vehicle>
    <vehicle id="veh34" type="idm_vehicle" depart="54.06" departLane="best" departSpeed="max">
        <route edges="-16728658 -171702740#0 -16729791#1 -16729791#0 16729624#2 16729624#3 16729624#4 16729624#5 16729624#6 16729624#7 -361221973#4 -361221973#3 -361221973#2 -361221973#1 -314153599#2 -314153599#1 -321760061#0 -904605189 321760060#0 321760060#1 321760060#2 321760060#3 321760060#5 321760060#7 321760060#8 906839017#2 -906700199#2 -906700199#1 -906700199#0 906700200#1 906700200#2 906700200#3" />
    </vehicle>
    <vehicle id="veh35" type="idm_vehicle" depart="55.65" departLane="best" departSpeed="max">
        <route edges="637060474#0 637060474#1 637060474#2 637060474#4 51724096#0 51724096#1 51724096#3 51724096#4 51724096#5 51724096#6 906844749#1 -906939358#7 -906939358#6 -906939358#5 -16722700#1 -16722700#0 -51724097#1 -911251945#1 -911251945#0 -912613969#0 -389592520#2 -389592520#1" />
    </vehicle>
    <vehicle id="veh36" type="idm_vehicle" depart="57.24" departLane="best">
        <route edges="16729399#3 -16729399#3 -16729399#2 -16729399#1 -16729399#0 361222003#1 361222003#2 361222003#3 361222003#4 361222003#5 361222003#6 361222003#7 361222003#8 361222003#9 361222003#10 16723820 906939360 911248048 253132779 218132216 906939359 361221996 -575389179 16729391 -575389180#3 -575389180#2 -575389180#1 -171004421#8 -171004421#7 -171004421#5 -171004421#3 -171004421#2 -171004421#1 -171004421#0 -906700207#1" />
    </vehicle>
    <vehicle id="veh37" type="idm_vehicle" depart="58.83" departLane="best" departSpeed="max">
        <route edges="904622820 -16728072#1 -16728072#0 -906844749#1 -906844749#0 -905646840#0 -911258378#5 -911258378#4 -911258378#3 252994611#1 252994611#2 252994611#3 252994611#4 252994611#5 252994611#6 252994611#7 252994601#0 252994601#1 364547008#0 364547008#1 16721792#1" />
    </vehicle>
    <vehicle id="veh38" type="idm_vehicle" depart="60.42" departLane="best">
        <route edges="-171488544#2 171488544#2 171488544#3 748906478#0 748906478#1 253130294 16722864#1 16722864#2 16722864#3 906844750#2 906844744 361221974#0 361221974#1 361221974#2 361221974#3 361221974#4 361221974#5 -389318890#4 -389318890#1 -252994606#5 -252994602#2 -252994602#1 -252994602#0" />
    </vehicle>
    <vehicle id="veh39" type="idm_vehicle" depart="62.01" departLane="best">
        <route edges="16725409#1 -16725409#1 -314153605#1 -314153605#0 -314153597#1 -314153602#3 -314153602#2 -314153602#1 -253130294 -748906478#1 -748906478#0 253130297#0 253130297#1 253130293 908942267#1 253130299#0 253130299#1 -575390995#1 -575390995#0 575390994 906700195 906858877#0 -253130291#6 -253130291#2 -253130291#1" />
    </vehicle>
    <vehicle id="veh40" type="idm_vehicle" depart="63.60" departLane="best">
        <route edges="16726341#2 16726341#3 -16721128#0 -361221973#4 -361221973#3 -361221973#2 -361221973#1 -314153599#2 -314153599#1 -321760061#0 -904605189 321760060#0 321760060#1 321760060#2 321760060#3 321760060#5 321760060#7 321760060#8 846419889#2 904605192 846419887#0 846419887#2" />
    </vehicle>
    <vehicle id="veh41" type="idm_vehicle" depart="65.19" departLane="best">
        <route edges="-904622818#2 904622818#2 904622818#3 51724096#0 51724096#1 51724096#3 51724096#4 51724096#5 51724096#6 51724096#7 51724096#8 51724096#9 -906856904 -575389179 16729391 -575389180#3 -575389180#2 -575389180#1 -171004421#8" />
    </vehicle>
    <vehicle id="veh42" type="idm_vehicle" depart="66.78" departLane="best">
        <route edges="911258380#4 16729035#1 -16729624#13 -16729624#12 -16729624#11 -16729624#10 -16729624#9 -16729624#8 -361221973#4 -361221973#3 -361221973#2 -361221973#1 -314153599#2 -314153599#1 314153597#1 314153605#0 314153605#1 314153605#2 314153605#3 255973752#0 255973752#1 255973752#2 -16724405#2 -16724405#1 16723365#0 16723365#1" />
    </vehicle>
    <vehicle id="veh43" type="idm_vehicle" depart="68.37" departLane="best" departSpeed="max">
        <route edges="-16724259 -16727085#9 -16723170#3 -16723170#2 -16723170#0 -361222003#4 -361222003#3 -361222003#2 -16724138#2 -16724138#1 -16722860#1" />
    </vehicle>
    <vehicle id="veh44" type="idm_vehicle" depart="69.96" departLane="best" departSpeed="max">
        <route edges="-16724882#5 -16724882#4 -16724882#2 16727394#1 16727394#2 16727394#3 16727394#4 474072165#1 474072165#2 906700215#0 906700215#1 906700215#2 575389180#1 575389180#2 575389180#3 906700214 906700211 575389179 906856904 51724100#0 51724100#1 51724100#2 252997114#0 904622815#1 -171488547#14 -171488547#13 -171488547#11 -171488547#10 -171488547#9 -171488547#8 -171488547#7 -171488547#6 -171488547#5 -171488547#2 -171488547#0 -16724398#10 -16724398#9 16728002#2" />
    </vehicle>
    <vehicle id="veh45" type="idm_vehicle" depart="71.55" departLane="best">
        <route edges="321760060#5 846419890#3 846419890#5 846419890#6 846419890#7 904605189 321760061#0 -314153602#3 -314153602#2 -314153602#1 -253130294 -748906478#1 -748906478#0 253130297#0 253130297#1 253130293 908942267#1 253130299#0 253130299#1 -575390995#1 -575390995#0 575390994 906700195 906858877#0 -253130291#6 -253130291#2 -253130291#1 575389180#1 575389180#2 575389180#3 906700214 906700211 575389179 906856904 361221997 906939358#0 906939358#1 906939358#2 906939358#3 906939358#4 -906939358#4 -906939358#3" />
    </vehicle>
    <vehicle id="veh46" type="idm_vehicle" depart="73.14" departLane="best">
        <route edges="-16723213#0 -255973733#5 -255973733#4 -255973733#3 -255973733#2 -255973733#1 -255973733#0 -906425993#4" />
    </vehicle>
    <vehicle id="veh47" type="idm_vehicle" depart="74.73" departLane="best">
        <route edges="911258379#2 -16729624#15 -16729624#14 -16729624#13 -16729624#12 -16729624#11 -16729624#10 -16729624#9 -16729624#8 -361221973#4 -361221973#3 -361221973#2 -361221973#1 -314153599#2 -314153599#1 -321760061#0 -904605189 321760060#0 321760060#1 321760060#2 321760060#3 321760060#5 321760060#7 321760060#8 -170301674#3 -170301674#2 -170301674#1 -170301674#0 -437690574#2 -437690574#1 16724433#0 16724433#1 16724433#2 16724433#3 16725413#0 16724165" />
    </vehicle>
    <vehicle id="veh48" type="idm_vehicle" depart="76.32" departLane="best" departSpeed="max">
        <route edges="906939354 -16723052#2 -16723052#1 906939351#0 906939351#1 906939351#2 361221975#0 361221975#1 361221975#2 361221975#4 361221975#5 255973733#0 255973733#1 255973733#2 255973733#3 255973733#4 255973733#5 255973733#6 255973733#7 255973733#8 255973733#9 906939359 906856905 51724100#0 51724100#1" />
    </vehicle>
    <vehicle id="veh49" type="idm_vehicle" depart="77.91" departLane="best" departSpeed="max">
        <route edges="-16721393 -16729624#16 -16729624#15 -16729624#14 -16729624#13 -16729624#12 -16729624#11 -16729624#10 -16729624#9 -16729624#8 -16729624#7 -16729624#6 -16729624#5 -16729624#4 -16729624#3 -16729624#2 16729791#0 16729791#1 171702740#0 171702740#1 171702740#2" />
    </vehicle>
    <vehicle id="veh50" type="idm_vehicle" depart="79.50" departLane="best" departSpeed="max">
        <route edges="170301687#0 170301687#1 906839016#0 906839016#1 846419886#1 846419886#2 846419890#1 846419890#2 846419890#3 846419890#5 846419890#6 846419890#7 904605189 321760061#0 314153599#1 314153599#2 361221973#1 361221973#2 361221973#3 361221973#4 -16729624#7 -16729624#6 -16729624#5 -16729624#4 -16729624#3 -16729624#2 -16729624#1 16724403#0 16724403#1 16724403#2" />
    </vehicle>
    <vehicle id="veh51" type="idm_vehicle" depart="81.09" departLane="best">
        <route edges="-171488545#3 171488545#3 904622818#0 904622818#1 904622818#2 904622818#3 51724096#0 51724096#1 51724096#3 51724096#4 51724096#5 51724096#6 51724096#7 51724096#8 51724096#9 -906856904 -575389179 16729391 -575389180#3 -575389180#2 -575389180#1 -906700215#2 -906700215#1 -906700215#0 -255973733#4 -255973733#3 -255973733#2 -255973733#1 -255973733#0 -361221975#5 -361221975#4 -361221975#2 -361221975#1 -361221975#0 -906939353#1 -906939353#0 -16728602#7 -16728602#6 -16728602#5 -16728602#4 -16728602#3 -16728602#2 -16728602#1 16728602#1" />
    </vehicle>
    <vehicle id="veh52" type="idm_vehicle" depart="82.68" departLane="best">
        <route edges="-16724923#2 904622822#6 361221973#1 16724398#7 16724398#8 16724398#9 16724398#10 16725296#0 16725296#1 16725296#2 16725296#3 16725296#4 16725296#5 16725296#6 16725296#7 16723629#3 -911258380#5" />
    </vehicle>
    <vehicle id="veh53" type="idm_vehicle" depart="84.27" departLane="best">
        <route edges="-906939358#7 -906939358#6 -906939358#5 -906939358#4 -906939358#3 -906939358#2 -906939358#1 -906939358#0 906939359 361221996 -575389179 16729391 -575389180#3 -575389180#2 -575389180#1 -171004421#8 -171004421#7 -171004421#5 -171004421#3 -171004421#2 -171004421#1 -171004421#0 -906700207#1 -906700207#0 -906425994 -906700208#7 -906700208#5 -906700208#4 -906700208#3 -906700208#2 -906700208#1 -906700208#0 16729794#1 16729794#2 16729794#3 16729794#4 16729794#5 906700209#0 906700209#1" />
    </vehicle>
    <vehicle id="veh54" type="idm_vehicle" depart="85.86" departLane="best" departSpeed="max">
        <route edges="637060474#0 637060474#1 637060474#2 637060474#4 51724096#0 51724096#1 51724096#3 51724096#4 51724096#5 51724096#6 51724096#7 51724096#8 51724096#9 -906856904 -575389179 16729391 -575389180#3 -575389180#2 -575389180#1 253130291#1 -253130291#1" />
    </vehicle>
    <vehicle id="veh55" type="idm_vehicle" depart="87.45" departLane="best">
        <route edges="16722413#0 -16722413#0 -16721742#1 16726058 16728602#1 16728602#2 16728602#3 16728602#4 16728602#5 16728602#6 16728602#7 906939353#0 906939353#1 361221975#0 361221975#1 361221975#2 361221975#4 361221975#5 255973733#0 255973733#1 255973733#2 255973733#3 255973733#4 255973733#5 255973733#6 255973733#7 255973733#8 255973733#9 906939359 906856905 51724100#0 51724100#1 51724100#2 252997114#0 904622815#1 -171488547#14 -171488547#13 -171488547#11 16722757#2 -171488545#0 -911258380#5 -16729035#0" />
    </vehicle>
    <vehicle id="veh56" type="idm_vehicle" depart="89.04" departLane="best">
        <route edges="904622818#5 -904622818#5 -904622818#4 51724096#0 51724096#1 51724096#3 51724096#4 -904622814#2 -904622814#1 -904622814#0 -171488547#14 -171488547#13 -171488547#11 -171488547#10 -171488547#9 -171488547#8 -171488547#7 -171488547#6 -171488547#5 -171488547#2 -171488547#0 -16724398#10 -16724398#9 -16724398#8 -16722864#6 -16722864#3 -16722864#2 16722175 16721125#0 16721125#1 575306227#0 575306227#1" />
    </vehicle>
    <vehicle id="veh57" type="idm_vehicle" depart="90.63" departLane="best" departSpeed="max">
        <route edges="-252997248#1 -252997248#0 -252997247#20 -252997247#19 -252997247#18 -252997247#17 -252997247#16 -252997247#15 -252997247#14 -252997247#13 -252997247#12 -252997247#11 -252997247#10 -252997247#9 -252997247#8 -252997247#7 -252997247#6 -252997247#5 -252997247#4 -252997247#3 -252997247#2 -252997247#1 712076414#4 906700199#0 906700199#1 906700199#2 -906839017#2 846419886#1 846419886#2 846419890#1 846419890#2 846419890#3 846419890#5 846419890#6 846419890#7 904605189 321760061#0 314153597#1 314153605#0 314153605#1 314153605#2 314153605#3 255973752#0 255973752#1 255973752#2 -16724405#2 16728512" />
    </vehicle>
    <vehicle id="veh58" type="idm_vehicle" depart="92.22" departLane="best">
        <route edges="16727273#1 16727273#2 16721687#0 906839016#0 906839016#1 906839017#2 -906700199#2 -906700199#1 -906700199#0 906700200#1 906700200#2 906700200#3 906700200#4 906700200#5 906700200#6 906700200#7 906700200#8 906700200#9 906700200#10 16722369#1 16722369#2 16722369#3 16722369#4 16722369#6 16722369#7 16722369#8 16722369#9 16722369#10 16722369#11 16722369#12 16722369#13 -51724102#3 -51724102#2 -51724102#1 -16722050 -16727700#0" />
    </vehicle>
    <vehicle id="veh59" type="idm_vehicle" depart="93.81" departLane="best">
        <route edges="253272375#0 253272375#1 361221976#6 906700206#2 906700206#3 906700206#4 906700206#5 -906700207#1 -906700207#0 -906425994 -906700208#7 -906700208#5 -906700208#4 -906700208#3 -906700208#2 -906700208#1 -906700208#0 -906700198#2 -906700198#1 -906839017#2 -170301674#3 -170301674#2 16724412#0" />
    </vehicle>
    <vehicle id="veh60" type="idm_vehicle" depart="95.40" departLane="best" departSpeed="max">
        <route edges="294774642#0 294774642#1 -906383522#0 -16724403#5 -16724403#4 -16724403#3 -16724403#2 -16724403#1 -16724403#0 16729624#1 16729624#2 16729624#3 16729624#4 16729624#5 16729624#6 16729624#7 16729624#8 16729624#9 16729624#10 16729624#11 16729624#12 16729624#13 16729624#14 16729624#15 16729624#16 -16722757#4 -16722757#3 171488545#1 171488545#2 171488545#3 904622818#0 904622818#1 904622818#2 904622818#3 904622818#4 904622818#5 -904622816#3 -904622816#2 -904622816#1 -904622816#0 -911248050#1 -911248050#0 -16727085#12 -16727085#11 -16727085#10 16724259" />
    </vehicle>
    <vehicle id="veh61" type="idm_vehicle" depart="96.99" departLane="best">
        <route edges="-16720145#1 -16721382#5 16728003 756596351#1 756596351#2 756596351#3 756596351#4 756596351#5 51724098#0 -514049372#0" />
    </vehicle>
    <vehicle id="veh63" type="idm_vehicle" depart="100.17" departLane="best" departSpeed="max">
        <route edges="637060474#0 637060474#1 637060474#2 637060474#4 51724096#0 51724096#1 51724096#3 51724096#4 51724096#5 51724096#6 -906844749#0 -905646840#0 -911258378#5 -911258378#4 -911258378#3 252994611#1 252994611#2 252994611#3 252994611#4 252994611#5 252994611#6 252994611#7 252994601#0 252994601#1 364547008#0 364547008#1 364547008#2 364547008#3 364547008#6" />
    </vehicle>
    <vehicle id="veh64" type="idm_vehicle" depart="101.76" departLane="best">
        <route edges="-255973733#1 255973733#1 255973733#2 255973733#3 255973733#4 255973733#5 255973733#6 255973733#7 255973733#8 255973733#9 906939359 906856905 51724100#0 51724100#1 51724100#2 252997114#0 904622815#1 -171488547#14 -171488547#13 -171488547#11 16722757#2 16722757#3 16722757#4 -16729624#16 -16729624#15 -16729624#14 -16729624#13 -16729624#12 -16729624#11 -16723412#1 -16723412#0" />
    </vehicle>
    <vehicle id="veh65" type="idm_vehicle" depart="103.35" departLane="best" departSpeed="max">